data_image0
_chemical_formula_structural       Tb2H48C89S8N8O26
_chemical_formula_sum              "Tb2 H48 C89 S8 N8 O26"
_cell_length_a       15.3339
_cell_length_b       15.3334
_cell_length_c       9.88362
_cell_angle_alpha    89.9982
_cell_angle_beta     90.0015
_cell_angle_gamma    90.0001

_space_group_name_H-M_alt    "P 1"
_space_group_IT_number       1

loop_
  _space_group_symop_operation_xyz
  'x, y, z'

loop_
  _atom_site_type_symbol
  _atom_site_label
  _atom_site_symmetry_multiplicity
  _atom_site_fract_x
  _atom_site_fract_y
  _atom_site_fract_z
  _atom_site_occupancy
  Tb  Tb1       1.0  0.50009  0.50004  0.24868  1.0000
  Tb  Tb2       1.0  0.50011  0.50028  0.74899  1.0000
  H   H1        1.0  0.42675  0.25460  0.21048  1.0000
  H   H2        1.0  0.29246  0.16505  0.21497  1.0000
  H   H3        1.0  0.57703  0.74112  0.21135  1.0000
  H   H4        1.0  0.71164  0.83013  0.21649  1.0000
  H   H5        1.0  0.73500  0.41462  0.22565  1.0000
  H   H6        1.0  0.82375  0.28068  0.22441  1.0000
  H   H7        1.0  0.26732  0.58450  0.22728  1.0000
  H   H8        1.0  0.17876  0.71858  0.22806  1.0000
  H   H9        1.0  0.58373  0.25901  0.27163  1.0000
  H   H10       1.0  0.71730  0.16939  0.27733  1.0000
  H   H11       1.0  0.41691  0.74385  0.27150  1.0000
  H   H12       1.0  0.28358  0.83379  0.27710  1.0000
  H   H13       1.0  0.26301  0.41895  0.29106  1.0000
  H   H14       1.0  0.17232  0.28501  0.28913  1.0000
  H   H15       1.0  0.74346  0.57797  0.29041  1.0000
  H   H16       1.0  0.83462  0.71163  0.29031  1.0000
  H   H17       1.0  0.58612  0.73845  0.77426  1.0000
  H   H18       1.0  0.71958  0.82819  0.78002  1.0000
  H   H19       1.0  0.41306  0.26552  0.77406  1.0000
  H   H20       1.0  0.27907  0.17668  0.77904  1.0000
  H   H21       1.0  0.25341  0.57623  0.79067  1.0000
  H   H22       1.0  0.16373  0.71065  0.79210  1.0000
  H   H23       1.0  0.74559  0.42334  0.78877  1.0000
  H   H24       1.0  0.83542  0.28902  0.78828  1.0000
  H   H25       1.0  0.41832  0.73475  0.70866  1.0000
  H   H26       1.0  0.28432  0.82524  0.71339  1.0000
  H   H27       1.0  0.57906  0.26334  0.70885  1.0000
  H   H28       1.0  0.71303  0.17286  0.71372  1.0000
  H   H29       1.0  0.73260  0.58673  0.72711  1.0000
  H   H30       1.0  0.82211  0.72038  0.72603  1.0000
  H   H31       1.0  0.25838  0.41818  0.72839  1.0000
  H   H32       1.0  0.16869  0.28471  0.72560  1.0000
  H   H33       1.0  0.16664  0.30240  0.03868  1.0000
  H   H34       1.0  0.99588  0.34356  0.04841  1.0000
  H   H35       1.0  0.83450  0.69759  0.04365  1.0000
  H   H36       1.0  0.00510  0.65643  0.05521  1.0000
  H   H37       1.0  0.69911  0.16561  0.96212  1.0000
  H   H38       1.0  0.65860  0.99452  0.95052  1.0000
  H   H39       1.0  0.30197  0.83383  0.96461  1.0000
  H   H40       1.0  0.34253  0.00487  0.95062  1.0000
  H   H41       1.0  0.83332  0.30348  0.51966  1.0000
  H   H42       1.0  0.00353  0.34611  0.52267  1.0000
  H   H43       1.0  0.16587  0.69755  0.52202  1.0000
  H   H44       1.0  0.99533  0.65483  0.52553  1.0000
  H   H45       1.0  0.30227  0.16669  0.48315  1.0000
  H   H46       1.0  0.34480  0.99617  0.47981  1.0000
  H   H47       1.0  0.69699  0.83411  0.48503  1.0000
  H   H48       1.0  0.65447  0.00464  0.48138  1.0000
  C   C1        1.0  0.39521  0.23634  0.11604  1.0000
  C   C2        1.0  0.31901  0.18684  0.11836  1.0000
  C   C3        1.0  0.60759  0.76109  0.11698  1.0000
  C   C4        1.0  0.68396  0.81033  0.11963  1.0000
  C   C5        1.0  0.75740  0.38796  0.12976  1.0000
  C   C6        1.0  0.80697  0.31175  0.12874  1.0000
  C   C7        1.0  0.24423  0.61134  0.13188  1.0000
  C   C8        1.0  0.19482  0.68766  0.13197  1.0000
  C   C9        1.0  0.61111  0.23973  0.36869  1.0000
  C   C10       1.0  0.68708  0.18977  0.37200  1.0000
  C   C11       1.0  0.38885  0.76212  0.36856  1.0000
  C   C12       1.0  0.31303  0.81231  0.37179  1.0000
  C   C13       1.0  0.24110  0.39030  0.38589  1.0000
  C   C14       1.0  0.19110  0.31446  0.38516  1.0000
  C   C15       1.0  0.76207  0.60831  0.38567  1.0000
  C   C16       1.0  0.81234  0.68397  0.38580  1.0000
  C   C17       1.0  0.61261  0.75926  0.87120  1.0000
  C   C18       1.0  0.68860  0.80916  0.87475  1.0000
  C   C19       1.0  0.38745  0.24303  0.87066  1.0000
  C   C20       1.0  0.31122  0.19347  0.87386  1.0000
  C   C21       1.0  0.23582  0.60657  0.88640  1.0000
  C   C22       1.0  0.18635  0.68283  0.88738  1.0000
  C   C23       1.0  0.76394  0.39296  0.88419  1.0000
  C   C24       1.0  0.81360  0.31677  0.88407  1.0000
  C   C25       1.0  0.38951  0.75760  0.61450  1.0000
  C   C26       1.0  0.31365  0.80754  0.61678  1.0000
  C   C27       1.0  0.60857  0.24153  0.61467  1.0000
  C   C28       1.0  0.68442  0.19160  0.61706  1.0000
  C   C29       1.0  0.75507  0.61342  0.63127  1.0000
  C   C30       1.0  0.80504  0.68935  0.63045  1.0000
  C   C31       1.0  0.23905  0.39001  0.63189  1.0000
  C   C32       1.0  0.18899  0.31409  0.63024  1.0000
  C   C33       1.0  0.42876  0.26450  0.99207  1.0000
  C   C34       1.0  0.27598  0.16577  0.99745  1.0000
  C   C35       1.0  0.19241  0.11597  0.00037  1.0000
  C   C36       1.0  0.11468  0.16437  0.00542  1.0000
  C   C37       1.0  0.11102  0.25904  0.02822  1.0000
  C   C38       1.0  0.02496  0.27982  0.03245  1.0000
  C   C39       1.0  0.97739  0.19773  0.01014  1.0000
  C   C40       1.0  0.57271  0.73533  0.99265  1.0000
  C   C41       1.0  0.72542  0.83407  0.99866  1.0000
  C   C42       1.0  0.80902  0.88379  0.00132  1.0000
  C   C43       1.0  0.88663  0.83538  0.00867  1.0000
  C   C44       1.0  0.89017  0.74090  0.03309  1.0000
  C   C45       1.0  0.97624  0.72012  0.03818  1.0000
  C   C46       1.0  0.02390  0.80205  0.01469  1.0000
  C   C47       1.0  0.73589  0.42792  0.00735  1.0000
  C   C48       1.0  0.83472  0.27518  0.00620  1.0000
  C   C49       1.0  0.88472  0.19173  0.00604  1.0000
  C   C50       1.0  0.83656  0.11383  0.00115  1.0000
  C   C51       1.0  0.74231  0.11004  0.97450  1.0000
  C   C52       1.0  0.72180  0.02394  0.96962  1.0000
  C   C53       1.0  0.80341  0.97649  0.99597  1.0000
  C   C54       1.0  0.26481  0.57153  0.00894  1.0000
  C   C55       1.0  0.16637  0.72444  0.00996  1.0000
  C   C56       1.0  0.11658  0.80801  0.01034  1.0000
  C   C57       1.0  0.16476  0.88589  0.00474  1.0000
  C   C58       1.0  0.25890  0.88948  0.97715  1.0000
  C   C59       1.0  0.27947  0.97556  0.97115  1.0000
  C   C60       1.0  0.19801  0.02321  0.99766  1.0000
  C   C61       1.0  0.57253  0.26542  0.49033  1.0000
  C   C62       1.0  0.72443  0.16587  0.49591  1.0000
  C   C63       1.0  0.80727  0.11508  0.50007  1.0000
  C   C64       1.0  0.88638  0.16431  0.49874  1.0000
  C   C65       1.0  0.88910  0.26002  0.51247  1.0000
  C   C66       1.0  0.97499  0.28164  0.51305  1.0000
  C   C67       1.0  0.02320  0.19932  0.50015  1.0000
  C   C68       1.0  0.42644  0.73503  0.49022  1.0000
  C   C69       1.0  0.27468  0.83480  0.49562  1.0000
  C   C70       1.0  0.19186  0.88566  0.49939  1.0000
  C   C71       1.0  0.11270  0.83647  0.49922  1.0000
  C   C72       1.0  0.11000  0.74085  0.51418  1.0000
  C   C73       1.0  0.02409  0.71917  0.51477  1.0000
  C   C74       1.0  0.97587  0.80142  0.50079  1.0000
  C   C75       1.0  0.26488  0.42749  0.50948  1.0000
  C   C76       1.0  0.16517  0.27563  0.50711  1.0000
  C   C77       1.0  0.11427  0.19286  0.50478  1.0000
  C   C78       1.0  0.16333  0.11362  0.50577  1.0000
  C   C79       1.0  0.25894  0.11087  0.49096  1.0000
  C   C80       1.0  0.28050  0.02495  0.49021  1.0000
  C   C81       1.0  0.19824  0.97674  0.50401  1.0000
  C   C82       1.0  0.73385  0.57348  0.50873  1.0000
  C   C83       1.0  0.83373  0.72522  0.50803  1.0000
  C   C84       1.0  0.88481  0.80786  0.50633  1.0000
  C   C85       1.0  0.83584  0.88716  0.50850  1.0000
  C   C86       1.0  0.74026  0.88994  0.49336  1.0000
  C   C87       1.0  0.71872  0.97584  0.49242  1.0000
  C   C88       1.0  0.80098  0.02404  0.50624  1.0000
  C   C89       1.0  0.95473  0.50315  0.81659  1.0000
  S   S1        1.0  0.53017  0.32131  0.98800  1.0000
  S   S2        1.0  0.47116  0.67878  0.98831  1.0000
  S   S3        1.0  0.67949  0.52958  0.00941  1.0000
  S   S4        1.0  0.32159  0.47013  0.00970  1.0000
  S   S5        1.0  0.47100  0.32180  0.48761  1.0000
  S   S6        1.0  0.52810  0.67888  0.48728  1.0000
  S   S7        1.0  0.32121  0.52904  0.51076  1.0000
  S   S8        1.0  0.67813  0.47165  0.50987  1.0000
  N   N1        1.0  0.03249  0.13002  0.98981  1.0000
  N   N2        1.0  0.96890  0.86959  0.99304  1.0000
  N   N3        1.0  0.87069  0.03171  0.01884  1.0000
  N   N4        1.0  0.13078  0.96816  0.02191  1.0000
  N   N5        1.0  0.96700  0.12996  0.48604  1.0000
  N   N6        1.0  0.03204  0.87070  0.48597  1.0000
  N   N7        1.0  0.12902  0.03298  0.51900  1.0000
  N   N8        1.0  0.87017  0.96780  0.52177  1.0000
  O   O1        1.0  0.52978  0.38767  0.09701  1.0000
  O   O2        1.0  0.47176  0.61175  0.09630  1.0000
  O   O3        1.0  0.63785  0.53582  0.14398  1.0000
  O   O4        1.0  0.36371  0.46381  0.14399  1.0000
  O   O5        1.0  0.46507  0.36316  0.35274  1.0000
  O   O6        1.0  0.53371  0.63713  0.35262  1.0000
  O   O7        1.0  0.38736  0.52750  0.40149  1.0000
  O   O8        1.0  0.61107  0.47313  0.40185  1.0000
  O   O9        1.0  0.46621  0.63731  0.85337  1.0000
  O   O10       1.0  0.53464  0.36347  0.85356  1.0000
  O   O11       1.0  0.38803  0.47218  0.90094  1.0000
  O   O12       1.0  0.61286  0.52832  0.90087  1.0000
  O   O13       1.0  0.52751  0.61236  0.59601  1.0000
  O   O14       1.0  0.47228  0.38858  0.59593  1.0000
  O   O15       1.0  0.63695  0.46479  0.64478  1.0000
  O   O16       1.0  0.36318  0.53535  0.64517  1.0000
  O   O17       1.0  0.59710  0.25578  0.00811  1.0000
  O   O18       1.0  0.40447  0.74432  0.00972  1.0000
  O   O19       1.0  0.74558  0.59569  0.98645  1.0000
  O   O20       1.0  0.25616  0.40344  0.98713  1.0000
  O   O21       1.0  0.40461  0.25610  0.51029  1.0000
  O   O22       1.0  0.59431  0.74493  0.50862  1.0000
  O   O23       1.0  0.25530  0.59529  0.48868  1.0000
  O   O24       1.0  0.74395  0.40566  0.48571  1.0000
  O   O25       1.0  0.97436  0.50415  0.93159  1.0000
  O   O26       1.0  0.93601  0.50218  0.70118  1.0000
