data_image0
_chemical_formula_structural       Tb2H48C89S8N8O26
_chemical_formula_sum              "Tb2 H48 C89 S8 N8 O26"
_cell_length_a       15.3339
_cell_length_b       15.3334
_cell_length_c       9.88362
_cell_angle_alpha    89.9982
_cell_angle_beta     90.0015
_cell_angle_gamma    90.0001

_space_group_name_H-M_alt    "P 1"
_space_group_IT_number       1

loop_
  _space_group_symop_operation_xyz
  'x, y, z'

loop_
  _atom_site_type_symbol
  _atom_site_label
  _atom_site_symmetry_multiplicity
  _atom_site_fract_x
  _atom_site_fract_y
  _atom_site_fract_z
  _atom_site_occupancy
  Tb  Tb1       1.0  0.49966  0.49974  0.25022  1.0000
  Tb  Tb2       1.0  0.49994  0.49987  0.74963  1.0000
  H   H1        1.0  0.41820  0.26307  0.21821  1.0000
  H   H2        1.0  0.28368  0.17397  0.21825  1.0000
  H   H3        1.0  0.58076  0.73621  0.21858  1.0000
  H   H4        1.0  0.71507  0.82529  0.21888  1.0000
  H   H5        1.0  0.73824  0.41817  0.21866  1.0000
  H   H6        1.0  0.82652  0.28351  0.21776  1.0000
  H   H7        1.0  0.26187  0.58174  0.21850  1.0000
  H   H8        1.0  0.17277  0.71595  0.21848  1.0000
  H   H9        1.0  0.58142  0.26250  0.28145  1.0000
  H   H10       1.0  0.71586  0.17354  0.28162  1.0000
  H   H11       1.0  0.41845  0.73742  0.28132  1.0000
  H   H12       1.0  0.28405  0.82642  0.28152  1.0000
  H   H13       1.0  0.26159  0.41931  0.28137  1.0000
  H   H14       1.0  0.17277  0.28474  0.28153  1.0000
  H   H15       1.0  0.73739  0.58132  0.28142  1.0000
  H   H16       1.0  0.82648  0.71568  0.28163  1.0000
  H   H17       1.0  0.58104  0.73636  0.78172  1.0000
  H   H18       1.0  0.71533  0.82552  0.78193  1.0000
  H   H19       1.0  0.41836  0.26306  0.78149  1.0000
  H   H20       1.0  0.28384  0.17399  0.78130  1.0000
  H   H21       1.0  0.26159  0.58190  0.78107  1.0000
  H   H22       1.0  0.17266  0.71624  0.78174  1.0000
  H   H23       1.0  0.73811  0.41869  0.78113  1.0000
  H   H24       1.0  0.82656  0.28413  0.78101  1.0000
  H   H25       1.0  0.41854  0.73740  0.71843  1.0000
  H   H26       1.0  0.28414  0.82643  0.71836  1.0000
  H   H27       1.0  0.58143  0.26253  0.71857  1.0000
  H   H28       1.0  0.71587  0.17354  0.71843  1.0000
  H   H29       1.0  0.73766  0.58105  0.71852  1.0000
  H   H30       1.0  0.82673  0.71545  0.71846  1.0000
  H   H31       1.0  0.26227  0.41886  0.71847  1.0000
  H   H32       1.0  0.17346  0.28438  0.71836  1.0000
  H   H33       1.0  0.16234  0.30470  0.99883  1.0000
  H   H34       1.0  0.98974  0.34385  0.99773  1.0000
  H   H35       1.0  0.83632  0.69483  0.99962  1.0000
  H   H36       1.0  0.00763  0.65494  0.99983  1.0000
  H   H37       1.0  0.69428  0.16335  0.99986  1.0000
  H   H38       1.0  0.65246  0.99226  0.00042  1.0000
  H   H39       1.0  0.30487  0.83647  0.00019  1.0000
  H   H40       1.0  0.34651  0.00761  0.00006  1.0000
  H   H41       1.0  0.83656  0.30531  0.49990  1.0000
  H   H42       1.0  0.00715  0.34681  0.49998  1.0000
  H   H43       1.0  0.16341  0.69468  0.50024  1.0000
  H   H44       1.0  0.99288  0.65316  0.50026  1.0000
  H   H45       1.0  0.30522  0.16344  0.50002  1.0000
  H   H46       1.0  0.34656  0.99276  0.49997  1.0000
  H   H47       1.0  0.69473  0.83657  0.49997  1.0000
  H   H48       1.0  0.65343  0.00726  0.49999  1.0000
  C   C1        1.0  0.38951  0.24240  0.12280  1.0000
  C   C2        1.0  0.31307  0.19317  0.12234  1.0000
  C   C3        1.0  0.60939  0.75694  0.12315  1.0000
  C   C4        1.0  0.68578  0.80623  0.12286  1.0000
  C   C5        1.0  0.75844  0.38966  0.12279  1.0000
  C   C6        1.0  0.80732  0.31298  0.12196  1.0000
  C   C7        1.0  0.24186  0.61068  0.12289  1.0000
  C   C8        1.0  0.19247  0.68701  0.12253  1.0000
  C   C9        1.0  0.61014  0.24212  0.37703  1.0000
  C   C10       1.0  0.68659  0.19289  0.37752  1.0000
  C   C11       1.0  0.38977  0.75782  0.37692  1.0000
  C   C12       1.0  0.31335  0.80709  0.37742  1.0000
  C   C13       1.0  0.24157  0.39033  0.37693  1.0000
  C   C14       1.0  0.19243  0.31383  0.37741  1.0000
  C   C15       1.0  0.75781  0.61001  0.37701  1.0000
  C   C16       1.0  0.80708  0.68643  0.37752  1.0000
  C   C17       1.0  0.60955  0.75705  0.87725  1.0000
  C   C18       1.0  0.68592  0.80638  0.87783  1.0000
  C   C19       1.0  0.38961  0.24242  0.87687  1.0000
  C   C20       1.0  0.31315  0.19321  0.87723  1.0000
  C   C21       1.0  0.24164  0.61070  0.87685  1.0000
  C   C22       1.0  0.19232  0.68709  0.87753  1.0000
  C   C23       1.0  0.75841  0.38994  0.87678  1.0000
  C   C24       1.0  0.80735  0.31329  0.87703  1.0000
  C   C25       1.0  0.38983  0.75783  0.62286  1.0000
  C   C26       1.0  0.31341  0.80710  0.62244  1.0000
  C   C27       1.0  0.61015  0.24212  0.62299  1.0000
  C   C28       1.0  0.68659  0.19288  0.62253  1.0000
  C   C29       1.0  0.75795  0.60987  0.62296  1.0000
  C   C30       1.0  0.80721  0.68630  0.62255  1.0000
  C   C31       1.0  0.24196  0.39010  0.62290  1.0000
  C   C32       1.0  0.19282  0.31361  0.62245  1.0000
  C   C33       1.0  0.42734  0.26653  0.99986  1.0000
  C   C34       1.0  0.27431  0.16825  0.99974  1.0000
  C   C35       1.0  0.19200  0.11625  0.99960  1.0000
  C   C36       1.0  0.11119  0.16442  0.99920  1.0000
  C   C37       1.0  0.10707  0.26039  0.99919  1.0000
  C   C38       1.0  0.02078  0.28044  0.99906  1.0000
  C   C39       1.0  0.97361  0.19765  0.99911  1.0000
  C   C40       1.0  0.57165  0.73289  0.00011  1.0000
  C   C41       1.0  0.72460  0.83138  0.00044  1.0000
  C   C42       1.0  0.80692  0.88342  0.00058  1.0000
  C   C43       1.0  0.88770  0.83516  0.00070  1.0000
  C   C44       1.0  0.89159  0.73918  0.99984  1.0000
  C   C45       1.0  0.97779  0.71887  0.99976  1.0000
  C   C46       1.0  0.02532  0.80157  0.00048  1.0000
  C   C47       1.0  0.73418  0.42759  0.99988  1.0000
  C   C48       1.0  0.83200  0.27407  0.99940  1.0000
  C   C49       1.0  0.88318  0.19114  0.99929  1.0000
  C   C50       1.0  0.83409  0.11099  0.99962  1.0000
  C   C51       1.0  0.73809  0.10766  0.99992  1.0000
  C   C52       1.0  0.71690  0.02158  0.00020  1.0000
  C   C53       1.0  0.79953  0.97375  0.00018  1.0000
  C   C54       1.0  0.26608  0.57298  0.99983  1.0000
  C   C55       1.0  0.16743  0.72586  0.00010  1.0000
  C   C56       1.0  0.11575  0.80842  0.00031  1.0000
  C   C57       1.0  0.16487  0.88867  0.00025  1.0000
  C   C58       1.0  0.26096  0.89207  0.00023  1.0000
  C   C59       1.0  0.28212  0.97817  0.00016  1.0000
  C   C60       1.0  0.19949  0.02594  0.99999  1.0000
  C   C61       1.0  0.57232  0.26625  0.50001  1.0000
  C   C62       1.0  0.72545  0.16800  0.50002  1.0000
  C   C63       1.0  0.80796  0.11625  0.50002  1.0000
  C   C64       1.0  0.88843  0.16509  0.49996  1.0000
  C   C65       1.0  0.89200  0.26120  0.49990  1.0000
  C   C66       1.0  0.97808  0.28226  0.49989  1.0000
  C   C67       1.0  0.02584  0.19948  0.49992  1.0000
  C   C68       1.0  0.42761  0.73365  0.49988  1.0000
  C   C69       1.0  0.27453  0.83200  0.49994  1.0000
  C   C70       1.0  0.19202  0.88374  0.49997  1.0000
  C   C71       1.0  0.11154  0.83490  0.50003  1.0000
  C   C72       1.0  0.10798  0.73879  0.50021  1.0000
  C   C73       1.0  0.02191  0.71772  0.50023  1.0000
  C   C74       1.0  0.97413  0.80049  0.50008  1.0000
  C   C75       1.0  0.26601  0.42795  0.49992  1.0000
  C   C76       1.0  0.16793  0.27477  0.49993  1.0000
  C   C77       1.0  0.11626  0.19223  0.49998  1.0000
  C   C78       1.0  0.16499  0.11166  0.50007  1.0000
  C   C79       1.0  0.26108  0.10802  0.50003  1.0000
  C   C80       1.0  0.28205  0.02191  0.50000  1.0000
  C   C81       1.0  0.19927  0.97418  0.50002  1.0000
  C   C82       1.0  0.73364  0.57217  0.49997  1.0000
  C   C83       1.0  0.83197  0.72525  0.50005  1.0000
  C   C84       1.0  0.88371  0.80776  0.50005  1.0000
  C   C85       1.0  0.83498  0.88833  0.50001  1.0000
  C   C86       1.0  0.73889  0.89198  0.49999  1.0000
  C   C87       1.0  0.71793  0.97809  0.50001  1.0000
  C   C88       1.0  0.80072  0.02581  0.50004  1.0000
  C   C89       1.0  0.04492  0.49719  0.00145  1.0000
  S   S1        1.0  0.53020  0.32043  0.99996  1.0000
  S   S2        1.0  0.46885  0.67897  0.99983  1.0000
  S   S3        1.0  0.68000  0.53035  0.00014  1.0000
  S   S4        1.0  0.31942  0.46977  0.99978  1.0000
  S   S5        1.0  0.46935  0.31996  0.50004  1.0000
  S   S6        1.0  0.53050  0.67979  0.49972  1.0000
  S   S7        1.0  0.32015  0.53067  0.49998  1.0000
  S   S8        1.0  0.67965  0.46933  0.49992  1.0000
  N   N1        1.0  0.03163  0.12855  0.99899  1.0000
  N   N2        1.0  0.96736  0.87081  0.00131  1.0000
  N   N3        1.0  0.86919  0.03119  0.99972  1.0000
  N   N4        1.0  0.12984  0.96847  0.00008  1.0000
  N   N5        1.0  0.96826  0.12990  0.49995  1.0000
  N   N6        1.0  0.03171  0.87008  0.49992  1.0000
  N   N7        1.0  0.12976  0.03184  0.50009  1.0000
  N   N8        1.0  0.87022  0.96814  0.50005  1.0000
  O   O1        1.0  0.53393  0.37512  0.12301  1.0000
  O   O2        1.0  0.46497  0.62402  0.12261  1.0000
  O   O3        1.0  0.62551  0.53413  0.12335  1.0000
  O   O4        1.0  0.37332  0.46496  0.12346  1.0000
  O   O5        1.0  0.46528  0.37439  0.37676  1.0000
  O   O6        1.0  0.53431  0.62536  0.37639  1.0000
  O   O7        1.0  0.37469  0.53440  0.37672  1.0000
  O   O8        1.0  0.62496  0.46553  0.37687  1.0000
  O   O9        1.0  0.46501  0.62482  0.87623  1.0000
  O   O10       1.0  0.53432  0.37484  0.87666  1.0000
  O   O11       1.0  0.37427  0.46549  0.87702  1.0000
  O   O12       1.0  0.62544  0.53435  0.87698  1.0000
  O   O13       1.0  0.53455  0.62524  0.62291  1.0000
  O   O14       1.0  0.46541  0.37450  0.62322  1.0000
  O   O15       1.0  0.62529  0.46538  0.62333  1.0000
  O   O16       1.0  0.37477  0.53433  0.62315  1.0000
  O   O17       1.0  0.59518  0.25185  0.00048  1.0000
  O   O18       1.0  0.40373  0.74738  0.00041  1.0000
  O   O19       1.0  0.74867  0.59530  0.00024  1.0000
  O   O20       1.0  0.24987  0.40562  0.99870  1.0000
  O   O21       1.0  0.40439  0.25138  0.50018  1.0000
  O   O22       1.0  0.59555  0.74829  0.49964  1.0000
  O   O23       1.0  0.25211  0.59615  0.50006  1.0000
  O   O24       1.0  0.74799  0.40412  0.49960  1.0000
  O   O25       1.0  0.04907  0.49858  0.12023  1.0000
  O   O26       1.0  0.03915  0.49613  0.88278  1.0000
