data_image0
_chemical_formula_structural       Tb2H48C89S8N8O26
_chemical_formula_sum              "Tb2 H48 C89 S8 N8 O26"
_cell_length_a       15.3339
_cell_length_b       15.3334
_cell_length_c       9.88362
_cell_angle_alpha    89.9982
_cell_angle_beta     90.0015
_cell_angle_gamma    90.0001

_space_group_name_H-M_alt    "P 1"
_space_group_IT_number       1

loop_
  _space_group_symop_operation_xyz
  'x, y, z'

loop_
  _atom_site_type_symbol
  _atom_site_label
  _atom_site_symmetry_multiplicity
  _atom_site_fract_x
  _atom_site_fract_y
  _atom_site_fract_z
  _atom_site_occupancy
  Tb  Tb1       1.0  0.50004  0.50001  0.24997  1.0000
  Tb  Tb2       1.0  0.49997  0.50003  0.74996  1.0000
  H   H1        1.0  0.41714  0.26420  0.21854  1.0000
  H   H2        1.0  0.28301  0.17464  0.21830  1.0000
  H   H3        1.0  0.58287  0.73580  0.21852  1.0000
  H   H4        1.0  0.71700  0.82537  0.21830  1.0000
  H   H5        1.0  0.73613  0.41724  0.21851  1.0000
  H   H6        1.0  0.82538  0.28302  0.21827  1.0000
  H   H7        1.0  0.26397  0.58267  0.21849  1.0000
  H   H8        1.0  0.17474  0.71697  0.21828  1.0000
  H   H9        1.0  0.58284  0.26422  0.28145  1.0000
  H   H10       1.0  0.71697  0.17464  0.28169  1.0000
  H   H11       1.0  0.41712  0.73582  0.28144  1.0000
  H   H12       1.0  0.28298  0.82538  0.28169  1.0000
  H   H13       1.0  0.26384  0.41728  0.28147  1.0000
  H   H14       1.0  0.17457  0.28307  0.28172  1.0000
  H   H15       1.0  0.73594  0.58272  0.28155  1.0000
  H   H16       1.0  0.82520  0.71700  0.28175  1.0000
  H   H17       1.0  0.58295  0.73594  0.78118  1.0000
  H   H18       1.0  0.71706  0.82545  0.78166  1.0000
  H   H19       1.0  0.41707  0.26407  0.78120  1.0000
  H   H20       1.0  0.28297  0.17455  0.78167  1.0000
  H   H21       1.0  0.26397  0.58284  0.78120  1.0000
  H   H22       1.0  0.17451  0.71698  0.78166  1.0000
  H   H23       1.0  0.73601  0.41710  0.78114  1.0000
  H   H24       1.0  0.82551  0.28299  0.78159  1.0000
  H   H25       1.0  0.41707  0.73593  0.71879  1.0000
  H   H26       1.0  0.28295  0.82544  0.71833  1.0000
  H   H27       1.0  0.58292  0.26408  0.71880  1.0000
  H   H28       1.0  0.71703  0.17455  0.71833  1.0000
  H   H29       1.0  0.73605  0.58283  0.71885  1.0000
  H   H30       1.0  0.82551  0.71697  0.71836  1.0000
  H   H31       1.0  0.26399  0.41709  0.71887  1.0000
  H   H32       1.0  0.17449  0.28299  0.71841  1.0000
  H   H33       1.0  0.16239  0.30594  0.00048  1.0000
  H   H34       1.0  0.99157  0.34656  0.99874  1.0000
  H   H35       1.0  0.83753  0.69418  0.00013  1.0000
  H   H36       1.0  0.00868  0.65342  0.99968  1.0000
  H   H37       1.0  0.69427  0.16244  0.00002  1.0000
  H   H38       1.0  0.65344  0.99151  0.99998  1.0000
  H   H39       1.0  0.30571  0.83751  0.00002  1.0000
  H   H40       1.0  0.34656  0.00845  0.99998  1.0000
  H   H41       1.0  0.83760  0.30597  0.49952  1.0000
  H   H42       1.0  0.00846  0.34655  0.50126  1.0000
  H   H43       1.0  0.16248  0.69418  0.49987  1.0000
  H   H44       1.0  0.99133  0.65343  0.50031  1.0000
  H   H45       1.0  0.30573  0.16246  0.49999  1.0000
  H   H46       1.0  0.34655  0.99153  0.50002  1.0000
  H   H47       1.0  0.69429  0.83750  0.49997  1.0000
  H   H48       1.0  0.65345  0.00845  0.50003  1.0000
  C   C1        1.0  0.38850  0.24369  0.12295  1.0000
  C   C2        1.0  0.31231  0.19412  0.12250  1.0000
  C   C3        1.0  0.61152  0.75631  0.12294  1.0000
  C   C4        1.0  0.68771  0.80589  0.12250  1.0000
  C   C5        1.0  0.75629  0.38844  0.12290  1.0000
  C   C6        1.0  0.80588  0.31225  0.12243  1.0000
  C   C7        1.0  0.24372  0.61146  0.12292  1.0000
  C   C8        1.0  0.19419  0.68768  0.12246  1.0000
  C   C9        1.0  0.61149  0.24370  0.37704  1.0000
  C   C10       1.0  0.68769  0.19412  0.37750  1.0000
  C   C11       1.0  0.38848  0.75633  0.37703  1.0000
  C   C12       1.0  0.31228  0.80590  0.37750  1.0000
  C   C13       1.0  0.24368  0.38847  0.37709  1.0000
  C   C14       1.0  0.19410  0.31227  0.37757  1.0000
  C   C15       1.0  0.75618  0.61153  0.37713  1.0000
  C   C16       1.0  0.80574  0.68773  0.37758  1.0000
  C   C17       1.0  0.61155  0.75637  0.87686  1.0000
  C   C18       1.0  0.68774  0.80594  0.87744  1.0000
  C   C19       1.0  0.38848  0.24363  0.87689  1.0000
  C   C20       1.0  0.31230  0.19405  0.87746  1.0000
  C   C21       1.0  0.24357  0.61144  0.87690  1.0000
  C   C22       1.0  0.19402  0.68764  0.87744  1.0000
  C   C23       1.0  0.75638  0.38845  0.87682  1.0000
  C   C24       1.0  0.80597  0.31229  0.87736  1.0000
  C   C25       1.0  0.38846  0.75638  0.62311  1.0000
  C   C26       1.0  0.31227  0.80595  0.62254  1.0000
  C   C27       1.0  0.61152  0.24363  0.62311  1.0000
  C   C28       1.0  0.68771  0.19405  0.62254  1.0000
  C   C29       1.0  0.75643  0.61145  0.62315  1.0000
  C   C30       1.0  0.80599  0.68765  0.62259  1.0000
  C   C31       1.0  0.24362  0.38845  0.62317  1.0000
  C   C32       1.0  0.19403  0.31228  0.62262  1.0000
  C   C33       1.0  0.42615  0.26793  0.99990  1.0000
  C   C34       1.0  0.27367  0.16906  0.00001  1.0000
  C   C35       1.0  0.19155  0.11695  0.00013  1.0000
  C   C36       1.0  0.11093  0.16551  0.00033  1.0000
  C   C37       1.0  0.10708  0.26161  0.00030  1.0000
  C   C38       1.0  0.02089  0.28217  0.99982  1.0000
  C   C39       1.0  0.97343  0.19923  0.99991  1.0000
  C   C40       1.0  0.57387  0.73209  0.99988  1.0000
  C   C41       1.0  0.72636  0.83093  1.00000  1.0000
  C   C42       1.0  0.80848  0.88302  0.00006  1.0000
  C   C43       1.0  0.88911  0.83447  0.00020  1.0000
  C   C44       1.0  0.89295  0.73837  0.00022  1.0000
  C   C45       1.0  0.97913  0.71774  0.00014  1.0000
  C   C46       1.0  0.02659  0.80070  0.00013  1.0000
  C   C47       1.0  0.73204  0.42607  0.99987  1.0000
  C   C48       1.0  0.83093  0.27362  0.99994  1.0000
  C   C49       1.0  0.88306  0.19151  0.99994  1.0000
  C   C50       1.0  0.83456  0.11087  0.00002  1.0000
  C   C51       1.0  0.73848  0.10704  0.00001  1.0000
  C   C52       1.0  0.71783  0.02088  1.00000  1.0000
  C   C53       1.0  0.80079  0.97341  0.00002  1.0000
  C   C54       1.0  0.26789  0.57376  0.99992  1.0000
  C   C55       1.0  0.16908  0.72631  1.00000  1.0000
  C   C56       1.0  0.11697  0.80841  0.00005  1.0000
  C   C57       1.0  0.16544  0.88908  0.00002  1.0000
  C   C58       1.0  0.26152  0.89292  1.00000  1.0000
  C   C59       1.0  0.28217  0.97909  0.99997  1.0000
  C   C60       1.0  0.19922  0.02656  0.00001  1.0000
  C   C61       1.0  0.57384  0.26794  0.50010  1.0000
  C   C62       1.0  0.72635  0.16906  0.49999  1.0000
  C   C63       1.0  0.80844  0.11695  0.49987  1.0000
  C   C64       1.0  0.88907  0.16553  0.49965  1.0000
  C   C65       1.0  0.89293  0.26165  0.49968  1.0000
  C   C66       1.0  0.97912  0.28218  0.50013  1.0000
  C   C67       1.0  0.02658  0.19925  0.50004  1.0000
  C   C68       1.0  0.42614  0.73208  0.50009  1.0000
  C   C69       1.0  0.27362  0.83093  0.49999  1.0000
  C   C70       1.0  0.19152  0.88304  0.49994  1.0000
  C   C71       1.0  0.11089  0.83447  0.49980  1.0000
  C   C72       1.0  0.10704  0.73835  0.49978  1.0000
  C   C73       1.0  0.02085  0.71775  0.49986  1.0000
  C   C74       1.0  0.97340  0.80070  0.49987  1.0000
  C   C75       1.0  0.26796  0.42609  0.50011  1.0000
  C   C76       1.0  0.16906  0.27361  0.50005  1.0000
  C   C77       1.0  0.11693  0.19152  0.50004  1.0000
  C   C78       1.0  0.16544  0.11087  0.49998  1.0000
  C   C79       1.0  0.26154  0.10704  0.49999  1.0000
  C   C80       1.0  0.28217  0.02087  0.50001  1.0000
  C   C81       1.0  0.19922  0.97340  0.49999  1.0000
  C   C82       1.0  0.73206  0.57379  0.50013  1.0000
  C   C83       1.0  0.83090  0.72634  0.50002  1.0000
  C   C84       1.0  0.88304  0.80842  0.49995  1.0000
  C   C85       1.0  0.83456  0.88910  0.49997  1.0000
  C   C86       1.0  0.73846  0.89294  0.50000  1.0000
  C   C87       1.0  0.71783  0.97910  0.50003  1.0000
  C   C88       1.0  0.80077  0.02658  0.49999  1.0000
  C   C89       1.0  0.99800  0.48178  0.25021  1.0000
  S   S1        1.0  0.52968  0.32052  0.99997  1.0000
  S   S2        1.0  0.47036  0.67951  0.99996  1.0000
  S   S3        1.0  0.67953  0.52962  0.00003  1.0000
  S   S4        1.0  0.32060  0.47028  0.99989  1.0000
  S   S5        1.0  0.47031  0.32052  0.50003  1.0000
  S   S6        1.0  0.52964  0.67950  0.50000  1.0000
  S   S7        1.0  0.32047  0.52963  0.49997  1.0000
  S   S8        1.0  0.67939  0.47031  0.50017  1.0000
  N   N1        1.0  0.03127  0.12995  0.00021  1.0000
  N   N2        1.0  0.96877  0.87000  0.00018  1.0000
  N   N3        1.0  0.87011  0.03122  0.00003  1.0000
  N   N4        1.0  0.12989  0.96874  0.00002  1.0000
  N   N5        1.0  0.96872  0.12997  0.49977  1.0000
  N   N6        1.0  0.03123  0.87000  0.49982  1.0000
  N   N7        1.0  0.12989  0.03122  0.49997  1.0000
  N   N8        1.0  0.87011  0.96875  0.49997  1.0000
  O   O1        1.0  0.53471  0.37491  0.12328  1.0000
  O   O2        1.0  0.46541  0.62502  0.12316  1.0000
  O   O3        1.0  0.62519  0.53470  0.12335  1.0000
  O   O4        1.0  0.37492  0.46530  0.12332  1.0000
  O   O5        1.0  0.46532  0.37492  0.37676  1.0000
  O   O6        1.0  0.53462  0.62511  0.37669  1.0000
  O   O7        1.0  0.37486  0.53474  0.37671  1.0000
  O   O8        1.0  0.62504  0.46535  0.37677  1.0000
  O   O9        1.0  0.46557  0.62512  0.87666  1.0000
  O   O10       1.0  0.53451  0.37503  0.87680  1.0000
  O   O11       1.0  0.37535  0.46585  0.87687  1.0000
  O   O12       1.0  0.62498  0.53452  0.87694  1.0000
  O   O13       1.0  0.53441  0.62502  0.62319  1.0000
  O   O14       1.0  0.46548  0.37500  0.62325  1.0000
  O   O15       1.0  0.62467  0.46581  0.62322  1.0000
  O   O16       1.0  0.37499  0.53450  0.62312  1.0000
  O   O17       1.0  0.59355  0.25088  0.99984  1.0000
  O   O18       1.0  0.40646  0.74912  1.00000  1.0000
  O   O19       1.0  0.74928  0.59339  0.99985  1.0000
  O   O20       1.0  0.25130  0.40610  0.99908  1.0000
  O   O21       1.0  0.40644  0.25087  0.50018  1.0000
  O   O22       1.0  0.59352  0.74913  0.50012  1.0000
  O   O23       1.0  0.25075  0.59342  0.50019  1.0000
  O   O24       1.0  0.74869  0.40613  0.50087  1.0000
  O   O25       1.0  0.92721  0.48306  0.29593  1.0000
  O   O26       1.0  0.06884  0.48042  0.20447  1.0000
