data_image0
_chemical_formula_structural       Tb2H48C89S8N8O26
_chemical_formula_sum              "Tb2 H48 C89 S8 N8 O26"
_cell_length_a       15.3339
_cell_length_b       15.3334
_cell_length_c       9.88362
_cell_angle_alpha    89.9982
_cell_angle_beta     90.0015
_cell_angle_gamma    90.0001

_space_group_name_H-M_alt    "P 1"
_space_group_IT_number       1

loop_
  _space_group_symop_operation_xyz
  'x, y, z'

loop_
  _atom_site_type_symbol
  _atom_site_label
  _atom_site_symmetry_multiplicity
  _atom_site_fract_x
  _atom_site_fract_y
  _atom_site_fract_z
  _atom_site_occupancy
  Tb  Tb1       1.0  0.50008  0.49985  0.24999  1.0000
  Tb  Tb2       1.0  0.49996  0.50012  0.75011  1.0000
  H   H1        1.0  0.41617  0.26467  0.21868  1.0000
  H   H2        1.0  0.28217  0.17453  0.21832  1.0000
  H   H3        1.0  0.58382  0.73533  0.21866  1.0000
  H   H4        1.0  0.71782  0.82547  0.21831  1.0000
  H   H5        1.0  0.73540  0.41619  0.21861  1.0000
  H   H6        1.0  0.82550  0.28223  0.21826  1.0000
  H   H7        1.0  0.26467  0.58382  0.21868  1.0000
  H   H8        1.0  0.17452  0.71781  0.21833  1.0000
  H   H9        1.0  0.58382  0.26468  0.28134  1.0000
  H   H10       1.0  0.71782  0.17453  0.28169  1.0000
  H   H11       1.0  0.41617  0.73533  0.28133  1.0000
  H   H12       1.0  0.28217  0.82547  0.28168  1.0000
  H   H13       1.0  0.26467  0.41618  0.28134  1.0000
  H   H14       1.0  0.17452  0.28219  0.28169  1.0000
  H   H15       1.0  0.73537  0.58381  0.28133  1.0000
  H   H16       1.0  0.82549  0.71779  0.28171  1.0000
  H   H17       1.0  0.58382  0.73533  0.78134  1.0000
  H   H18       1.0  0.71782  0.82547  0.78169  1.0000
  H   H19       1.0  0.41618  0.26468  0.78135  1.0000
  H   H20       1.0  0.28218  0.17454  0.78169  1.0000
  H   H21       1.0  0.26463  0.58381  0.78132  1.0000
  H   H22       1.0  0.17449  0.71778  0.78167  1.0000
  H   H23       1.0  0.73525  0.41617  0.78131  1.0000
  H   H24       1.0  0.82546  0.28218  0.78166  1.0000
  H   H25       1.0  0.41618  0.73532  0.71865  1.0000
  H   H26       1.0  0.28218  0.82546  0.71831  1.0000
  H   H27       1.0  0.58382  0.26468  0.71866  1.0000
  H   H28       1.0  0.71783  0.17453  0.71831  1.0000
  H   H29       1.0  0.73525  0.58383  0.71864  1.0000
  H   H30       1.0  0.82548  0.71785  0.71829  1.0000
  H   H31       1.0  0.26465  0.41619  0.71865  1.0000
  H   H32       1.0  0.17452  0.28220  0.71830  1.0000
  H   H33       1.0  0.16243  0.30599  1.00000  1.0000
  H   H34       1.0  0.99138  0.34630  0.00086  1.0000
  H   H35       1.0  0.83754  0.69399  0.00019  1.0000
  H   H36       1.0  0.00900  0.65420  0.00102  1.0000
  H   H37       1.0  0.69402  0.16241  0.00000  1.0000
  H   H38       1.0  0.65341  0.99146  1.00000  1.0000
  H   H39       1.0  0.30597  0.83759  1.00000  1.0000
  H   H40       1.0  0.34658  0.00853  1.00000  1.0000
  H   H41       1.0  0.83760  0.30599  0.49998  1.0000
  H   H42       1.0  0.00852  0.34665  0.50008  1.0000
  H   H43       1.0  0.16239  0.69400  0.50003  1.0000
  H   H44       1.0  0.99150  0.65334  0.50021  1.0000
  H   H45       1.0  0.30597  0.16243  0.50000  1.0000
  H   H46       1.0  0.34657  0.99146  0.50000  1.0000
  H   H47       1.0  0.69403  0.83757  0.50000  1.0000
  H   H48       1.0  0.65343  0.00854  0.50000  1.0000
  C   C1        1.0  0.38762  0.24385  0.12313  1.0000
  C   C2        1.0  0.31154  0.19416  0.12265  1.0000
  C   C3        1.0  0.61238  0.75615  0.12313  1.0000
  C   C4        1.0  0.68845  0.80584  0.12266  1.0000
  C   C5        1.0  0.75595  0.38752  0.12307  1.0000
  C   C6        1.0  0.80577  0.31154  0.12261  1.0000
  C   C7        1.0  0.24383  0.61236  0.12315  1.0000
  C   C8        1.0  0.19413  0.68843  0.12266  1.0000
  C   C9        1.0  0.61237  0.24385  0.37687  1.0000
  C   C10       1.0  0.68844  0.19416  0.37734  1.0000
  C   C11       1.0  0.38762  0.75616  0.37686  1.0000
  C   C12       1.0  0.31155  0.80584  0.37734  1.0000
  C   C13       1.0  0.24385  0.38763  0.37687  1.0000
  C   C14       1.0  0.19415  0.31156  0.37734  1.0000
  C   C15       1.0  0.75615  0.61237  0.37687  1.0000
  C   C16       1.0  0.80584  0.68844  0.37737  1.0000
  C   C17       1.0  0.61238  0.75615  0.87687  1.0000
  C   C18       1.0  0.68846  0.80583  0.87735  1.0000
  C   C19       1.0  0.38762  0.24385  0.87689  1.0000
  C   C20       1.0  0.31155  0.19416  0.87736  1.0000
  C   C21       1.0  0.24382  0.61236  0.87687  1.0000
  C   C22       1.0  0.19413  0.68843  0.87733  1.0000
  C   C23       1.0  0.75607  0.38764  0.87691  1.0000
  C   C24       1.0  0.80593  0.31164  0.87733  1.0000
  C   C25       1.0  0.38764  0.75615  0.62311  1.0000
  C   C26       1.0  0.31156  0.80583  0.62265  1.0000
  C   C27       1.0  0.61237  0.24385  0.62312  1.0000
  C   C28       1.0  0.68845  0.19416  0.62266  1.0000
  C   C29       1.0  0.75620  0.61233  0.62312  1.0000
  C   C30       1.0  0.80587  0.68841  0.62267  1.0000
  C   C31       1.0  0.24384  0.38764  0.62312  1.0000
  C   C32       1.0  0.19415  0.31157  0.62266  1.0000
  C   C33       1.0  0.42535  0.26778  0.00003  1.0000
  C   C34       1.0  0.27319  0.16909  0.00001  1.0000
  C   C35       1.0  0.19126  0.11714  0.00001  1.0000
  C   C36       1.0  0.11100  0.16550  0.00002  1.0000
  C   C37       1.0  0.10715  0.26163  0.99992  1.0000
  C   C38       1.0  0.02100  0.28210  0.99977  1.0000
  C   C39       1.0  0.97360  0.19900  0.99991  1.0000
  C   C40       1.0  0.57464  0.73222  0.00000  1.0000
  C   C41       1.0  0.72681  0.83090  0.00001  1.0000
  C   C42       1.0  0.80875  0.88284  1.00000  1.0000
  C   C43       1.0  0.88900  0.83447  0.99993  1.0000
  C   C44       1.0  0.89285  0.73835  0.99994  1.0000
  C   C45       1.0  0.97906  0.71813  0.99993  1.0000
  C   C46       1.0  0.02644  0.80109  0.99988  1.0000
  C   C47       1.0  0.73191  0.42524  0.00004  1.0000
  C   C48       1.0  0.83095  0.27324  0.00002  1.0000
  C   C49       1.0  0.88285  0.19127  0.00001  1.0000
  C   C50       1.0  0.83448  0.11099  0.00001  1.0000
  C   C51       1.0  0.73836  0.10711  1.00000  1.0000
  C   C52       1.0  0.71779  0.02095  1.00000  1.0000
  C   C53       1.0  0.80098  0.97360  0.00000  1.0000
  C   C54       1.0  0.26776  0.57463  0.99999  1.0000
  C   C55       1.0  0.16908  0.72678  0.99999  1.0000
  C   C56       1.0  0.11720  0.80876  0.99998  1.0000
  C   C57       1.0  0.16552  0.88903  1.00000  1.0000
  C   C58       1.0  0.26164  0.89290  1.00000  1.0000
  C   C59       1.0  0.28221  0.97904  1.00000  1.0000
  C   C60       1.0  0.19902  0.02640  1.00000  1.0000
  C   C61       1.0  0.57464  0.26778  0.49999  1.0000
  C   C62       1.0  0.72681  0.16910  0.49999  1.0000
  C   C63       1.0  0.80877  0.11715  0.50000  1.0000
  C   C64       1.0  0.88891  0.16547  0.50001  1.0000
  C   C65       1.0  0.89291  0.26166  0.50004  1.0000
  C   C66       1.0  0.97903  0.28225  0.50003  1.0000
  C   C67       1.0  0.02653  0.19900  0.50001  1.0000
  C   C68       1.0  0.42535  0.73221  0.49998  1.0000
  C   C69       1.0  0.27319  0.83090  0.49999  1.0000
  C   C70       1.0  0.19123  0.88286  0.50000  1.0000
  C   C71       1.0  0.11110  0.83454  0.50000  1.0000
  C   C72       1.0  0.10707  0.73834  0.49999  1.0000
  C   C73       1.0  0.02096  0.71774  0.49998  1.0000
  C   C74       1.0  0.97345  0.80099  0.49999  1.0000
  C   C75       1.0  0.26779  0.42536  0.50001  1.0000
  C   C76       1.0  0.16909  0.27321  0.50000  1.0000
  C   C77       1.0  0.11713  0.19126  0.50001  1.0000
  C   C78       1.0  0.16544  0.11111  0.50000  1.0000
  C   C79       1.0  0.26163  0.10710  0.50000  1.0000
  C   C80       1.0  0.28219  0.02098  0.50000  1.0000
  C   C81       1.0  0.19898  0.97345  0.50000  1.0000
  C   C82       1.0  0.73223  0.57463  0.49999  1.0000
  C   C83       1.0  0.83092  0.72679  0.50001  1.0000
  C   C84       1.0  0.88288  0.80874  0.50001  1.0000
  C   C85       1.0  0.83456  0.88889  0.50001  1.0000
  C   C86       1.0  0.73837  0.89290  0.50000  1.0000
  C   C87       1.0  0.71780  0.97902  0.50001  1.0000
  C   C88       1.0  0.80102  0.02656  0.50001  1.0000
  C   C89       1.0  0.95821  0.51013  0.89948  1.0000
  S   S1        1.0  0.52899  0.31998  0.00000  1.0000
  S   S2        1.0  0.47094  0.68002  0.99996  1.0000
  S   S3        1.0  0.67994  0.52904  0.99977  1.0000
  S   S4        1.0  0.31992  0.47098  0.99986  1.0000
  S   S5        1.0  0.47096  0.31997  0.50012  1.0000
  S   S6        1.0  0.52902  0.68005  0.49995  1.0000
  S   S7        1.0  0.31997  0.52904  0.50017  1.0000
  S   S8        1.0  0.68008  0.47098  0.50013  1.0000
  N   N1        1.0  0.03102  0.12981  0.00003  1.0000
  N   N2        1.0  0.96898  0.87018  0.00004  1.0000
  N   N3        1.0  0.87020  0.03100  0.99999  1.0000
  N   N4        1.0  0.12981  0.96899  0.99998  1.0000
  N   N5        1.0  0.96901  0.12977  0.50000  1.0000
  N   N6        1.0  0.03100  0.87026  0.50001  1.0000
  N   N7        1.0  0.12979  0.03099  0.50001  1.0000
  N   N8        1.0  0.87024  0.96900  0.50001  1.0000
  O   O1        1.0  0.53390  0.37391  0.12334  1.0000
  O   O2        1.0  0.46610  0.62599  0.12327  1.0000
  O   O3        1.0  0.62611  0.53395  0.12334  1.0000
  O   O4        1.0  0.37386  0.46605  0.12342  1.0000
  O   O5        1.0  0.46609  0.37399  0.37673  1.0000
  O   O6        1.0  0.53392  0.62611  0.37666  1.0000
  O   O7        1.0  0.37389  0.53390  0.37669  1.0000
  O   O8        1.0  0.62610  0.46606  0.37664  1.0000
  O   O9        1.0  0.46605  0.62616  0.87671  1.0000
  O   O10       1.0  0.53392  0.37388  0.87666  1.0000
  O   O11       1.0  0.37391  0.46604  0.87678  1.0000
  O   O12       1.0  0.62618  0.53388  0.87651  1.0000
  O   O13       1.0  0.53398  0.62614  0.62333  1.0000
  O   O14       1.0  0.46608  0.37377  0.62337  1.0000
  O   O15       1.0  0.62612  0.46608  0.62319  1.0000
  O   O16       1.0  0.37388  0.53393  0.62334  1.0000
  O   O17       1.0  0.59284  0.25009  0.00003  1.0000
  O   O18       1.0  0.40717  0.74994  0.00002  1.0000
  O   O19       1.0  0.74962  0.59305  0.99957  1.0000
  O   O20       1.0  0.25000  0.40719  0.99999  1.0000
  O   O21       1.0  0.40716  0.25004  0.49991  1.0000
  O   O22       1.0  0.59284  0.74994  0.49999  1.0000
  O   O23       1.0  0.25016  0.59289  0.50004  1.0000
  O   O24       1.0  0.74991  0.40714  0.50005  1.0000
  O   O25       1.0  0.92963  0.50017  0.00804  1.0000
  O   O26       1.0  0.98885  0.52035  0.79136  1.0000
