data_image0
_chemical_formula_structural       Tb2H48C89S8N8O26
_chemical_formula_sum              "Tb2 H48 C89 S8 N8 O26"
_cell_length_a       15.3339
_cell_length_b       15.3334
_cell_length_c       9.88362
_cell_angle_alpha    89.9982
_cell_angle_beta     90.0015
_cell_angle_gamma    90.0001

_space_group_name_H-M_alt    "P 1"
_space_group_IT_number       1

loop_
  _space_group_symop_operation_xyz
  'x, y, z'

loop_
  _atom_site_type_symbol
  _atom_site_label
  _atom_site_symmetry_multiplicity
  _atom_site_fract_x
  _atom_site_fract_y
  _atom_site_fract_z
  _atom_site_occupancy
  Tb  Tb1       1.0  0.49996  0.49992  0.25013  1.0000
  Tb  Tb2       1.0  0.50011  0.50007  0.75004  1.0000
  H   H1        1.0  0.41636  0.26463  0.21856  1.0000
  H   H2        1.0  0.28236  0.17460  0.21834  1.0000
  H   H3        1.0  0.58364  0.73537  0.21855  1.0000
  H   H4        1.0  0.71763  0.82539  0.21834  1.0000
  H   H5        1.0  0.73556  0.41642  0.21856  1.0000
  H   H6        1.0  0.82539  0.28243  0.21835  1.0000
  H   H7        1.0  0.26449  0.58355  0.21851  1.0000
  H   H8        1.0  0.17462  0.71761  0.21832  1.0000
  H   H9        1.0  0.58364  0.26464  0.28144  1.0000
  H   H10       1.0  0.71762  0.17460  0.28166  1.0000
  H   H11       1.0  0.41635  0.73537  0.28144  1.0000
  H   H12       1.0  0.28236  0.82540  0.28165  1.0000
  H   H13       1.0  0.26443  0.41642  0.28143  1.0000
  H   H14       1.0  0.17460  0.28245  0.28164  1.0000
  H   H15       1.0  0.73550  0.58357  0.28150  1.0000
  H   H16       1.0  0.82537  0.71761  0.28169  1.0000
  H   H17       1.0  0.58369  0.73546  0.78126  1.0000
  H   H18       1.0  0.71771  0.82544  0.78158  1.0000
  H   H19       1.0  0.41631  0.26455  0.78128  1.0000
  H   H20       1.0  0.28230  0.17456  0.78160  1.0000
  H   H21       1.0  0.26452  0.58367  0.78129  1.0000
  H   H22       1.0  0.17455  0.71770  0.78159  1.0000
  H   H23       1.0  0.73548  0.41633  0.78124  1.0000
  H   H24       1.0  0.82545  0.28231  0.78156  1.0000
  H   H25       1.0  0.41631  0.73544  0.71872  1.0000
  H   H26       1.0  0.28231  0.82543  0.71841  1.0000
  H   H27       1.0  0.58369  0.26455  0.71873  1.0000
  H   H28       1.0  0.71770  0.17456  0.71841  1.0000
  H   H29       1.0  0.73548  0.58367  0.71872  1.0000
  H   H30       1.0  0.82545  0.71770  0.71842  1.0000
  H   H31       1.0  0.26452  0.41633  0.71876  1.0000
  H   H32       1.0  0.17454  0.28230  0.71845  1.0000
  H   H33       1.0  0.16240  0.30607  0.00017  1.0000
  H   H34       1.0  0.99148  0.34648  0.99942  1.0000
  H   H35       1.0  0.83750  0.69405  0.00000  1.0000
  H   H36       1.0  0.00873  0.65349  0.99979  1.0000
  H   H37       1.0  0.69408  0.16246  0.99999  1.0000
  H   H38       1.0  0.65349  0.99142  1.00000  1.0000
  H   H39       1.0  0.30590  0.83754  0.99999  1.0000
  H   H40       1.0  0.34651  0.00858  1.00000  1.0000
  H   H41       1.0  0.83758  0.30607  0.49984  1.0000
  H   H42       1.0  0.00855  0.34647  0.50060  1.0000
  H   H43       1.0  0.16251  0.69405  0.50000  1.0000
  H   H44       1.0  0.99126  0.65349  0.50020  1.0000
  H   H45       1.0  0.30592  0.16247  0.50001  1.0000
  H   H46       1.0  0.34651  0.99142  0.50000  1.0000
  H   H47       1.0  0.69409  0.83752  0.50001  1.0000
  H   H48       1.0  0.65349  0.00857  0.50000  1.0000
  C   C1        1.0  0.38785  0.24380  0.12302  1.0000
  C   C2        1.0  0.31171  0.19418  0.12259  1.0000
  C   C3        1.0  0.61214  0.75620  0.12301  1.0000
  C   C4        1.0  0.68828  0.80583  0.12259  1.0000
  C   C5        1.0  0.75610  0.38780  0.12300  1.0000
  C   C6        1.0  0.80576  0.31169  0.12255  1.0000
  C   C7        1.0  0.24389  0.61218  0.12299  1.0000
  C   C8        1.0  0.19425  0.68830  0.12256  1.0000
  C   C9        1.0  0.61214  0.24381  0.37698  1.0000
  C   C10       1.0  0.68827  0.19418  0.37741  1.0000
  C   C11       1.0  0.38785  0.75619  0.37697  1.0000
  C   C12       1.0  0.31172  0.80583  0.37740  1.0000
  C   C13       1.0  0.24389  0.38781  0.37699  1.0000
  C   C14       1.0  0.19424  0.31169  0.37744  1.0000
  C   C15       1.0  0.75606  0.61221  0.37703  1.0000
  C   C16       1.0  0.80571  0.68832  0.37745  1.0000
  C   C17       1.0  0.61222  0.75626  0.87679  1.0000
  C   C18       1.0  0.68835  0.80587  0.87731  1.0000
  C   C19       1.0  0.38778  0.24375  0.87680  1.0000
  C   C20       1.0  0.31165  0.19414  0.87733  1.0000
  C   C21       1.0  0.24371  0.61218  0.87683  1.0000
  C   C22       1.0  0.19410  0.68831  0.87731  1.0000
  C   C23       1.0  0.75628  0.38780  0.87677  1.0000
  C   C24       1.0  0.80589  0.31168  0.87728  1.0000
  C   C25       1.0  0.38778  0.75625  0.62319  1.0000
  C   C26       1.0  0.31166  0.80586  0.62268  1.0000
  C   C27       1.0  0.61221  0.24375  0.62319  1.0000
  C   C28       1.0  0.68834  0.19414  0.62268  1.0000
  C   C29       1.0  0.75629  0.61218  0.62319  1.0000
  C   C30       1.0  0.80590  0.68831  0.62270  1.0000
  C   C31       1.0  0.24372  0.38780  0.62323  1.0000
  C   C32       1.0  0.19411  0.31168  0.62272  1.0000
  C   C33       1.0  0.42559  0.26772  0.99984  1.0000
  C   C34       1.0  0.27324  0.16907  0.99999  1.0000
  C   C35       1.0  0.19127  0.11699  0.00000  1.0000
  C   C36       1.0  0.11097  0.16555  0.00002  1.0000
  C   C37       1.0  0.10712  0.26167  0.00015  1.0000
  C   C38       1.0  0.02092  0.28213  0.00013  1.0000
  C   C39       1.0  0.97343  0.19909  0.00006  1.0000
  C   C40       1.0  0.57442  0.73229  0.99982  1.0000
  C   C41       1.0  0.72675  0.83093  0.99999  1.0000
  C   C42       1.0  0.80874  0.88300  0.00001  1.0000
  C   C43       1.0  0.88903  0.83444  0.00003  1.0000
  C   C44       1.0  0.89288  0.73831  0.00012  1.0000
  C   C45       1.0  0.97909  0.71778  0.00017  1.0000
  C   C46       1.0  0.02657  0.80086  0.00009  1.0000
  C   C47       1.0  0.73225  0.42556  0.99984  1.0000
  C   C48       1.0  0.83093  0.27324  0.99998  1.0000
  C   C49       1.0  0.88300  0.19126  0.00002  1.0000
  C   C50       1.0  0.83447  0.11097  0.00000  1.0000
  C   C51       1.0  0.73837  0.10710  0.00001  1.0000
  C   C52       1.0  0.71782  0.02091  0.00000  1.0000
  C   C53       1.0  0.80091  0.97343  1.00000  1.0000
  C   C54       1.0  0.26772  0.57439  0.99987  1.0000
  C   C55       1.0  0.16907  0.72674  0.99999  1.0000
  C   C56       1.0  0.11699  0.80871  0.00003  1.0000
  C   C57       1.0  0.16551  0.88903  0.00000  1.0000
  C   C58       1.0  0.26162  0.89289  0.00001  1.0000
  C   C59       1.0  0.28217  0.97909  1.00000  1.0000
  C   C60       1.0  0.19909  0.02656  0.99999  1.0000
  C   C61       1.0  0.57440  0.26774  0.50015  1.0000
  C   C62       1.0  0.72674  0.16908  0.50001  1.0000
  C   C63       1.0  0.80873  0.11704  0.50000  1.0000
  C   C64       1.0  0.88898  0.16555  0.49997  1.0000
  C   C65       1.0  0.89286  0.26168  0.49983  1.0000
  C   C66       1.0  0.97907  0.28214  0.49983  1.0000
  C   C67       1.0  0.02655  0.19907  0.49992  1.0000
  C   C68       1.0  0.42559  0.73228  0.50016  1.0000
  C   C69       1.0  0.27325  0.83092  0.50001  1.0000
  C   C70       1.0  0.19126  0.88296  0.49999  1.0000
  C   C71       1.0  0.11101  0.83445  0.49997  1.0000
  C   C72       1.0  0.10713  0.73831  0.49988  1.0000
  C   C73       1.0  0.02091  0.71779  0.49983  1.0000
  C   C74       1.0  0.97345  0.80090  0.49991  1.0000
  C   C75       1.0  0.26774  0.42556  0.50015  1.0000
  C   C76       1.0  0.16909  0.27325  0.50002  1.0000
  C   C77       1.0  0.11705  0.19127  0.49998  1.0000
  C   C78       1.0  0.16552  0.11101  0.50000  1.0000
  C   C79       1.0  0.26163  0.10711  0.49999  1.0000
  C   C80       1.0  0.28217  0.02092  0.50000  1.0000
  C   C81       1.0  0.19906  0.97345  0.50000  1.0000
  C   C82       1.0  0.73225  0.57440  0.50015  1.0000
  C   C83       1.0  0.83091  0.72674  0.50001  1.0000
  C   C84       1.0  0.88296  0.80871  0.49997  1.0000
  C   C85       1.0  0.83450  0.88899  0.49999  1.0000
  C   C86       1.0  0.73838  0.89288  0.49999  1.0000
  C   C87       1.0  0.71784  0.97908  0.50000  1.0000
  C   C88       1.0  0.80094  0.02654  0.50001  1.0000
  C   C89       1.0  0.99786  0.48133  0.25022  1.0000
  S   S1        1.0  0.52931  0.31969  0.99955  1.0000
  S   S2        1.0  0.47072  0.68029  0.99952  1.0000
  S   S3        1.0  0.68036  0.52930  0.99962  1.0000
  S   S4        1.0  0.31966  0.47067  0.99955  1.0000
  S   S5        1.0  0.47070  0.31971  0.50044  1.0000
  S   S6        1.0  0.52931  0.68032  0.50044  1.0000
  S   S7        1.0  0.31965  0.52928  0.50043  1.0000
  S   S8        1.0  0.68033  0.47068  0.50048  1.0000
  N   N1        1.0  0.03117  0.12996  0.99999  1.0000
  N   N2        1.0  0.96884  0.87000  0.99998  1.0000
  N   N3        1.0  0.87007  0.03116  0.00000  1.0000
  N   N4        1.0  0.12993  0.96883  1.00000  1.0000
  N   N5        1.0  0.96885  0.12995  0.50002  1.0000
  N   N6        1.0  0.03114  0.87002  0.50001  1.0000
  N   N7        1.0  0.12991  0.03114  0.50000  1.0000
  N   N8        1.0  0.87009  0.96886  0.50000  1.0000
  O   O1        1.0  0.53441  0.37364  0.12331  1.0000
  O   O2        1.0  0.46569  0.62621  0.12313  1.0000
  O   O3        1.0  0.62641  0.53439  0.12338  1.0000
  O   O4        1.0  0.37374  0.46564  0.12323  1.0000
  O   O5        1.0  0.46554  0.37373  0.37677  1.0000
  O   O6        1.0  0.53437  0.62637  0.37669  1.0000
  O   O7        1.0  0.37361  0.53439  0.37664  1.0000
  O   O8        1.0  0.62620  0.46563  0.37688  1.0000
  O   O9        1.0  0.46600  0.62577  0.87632  1.0000
  O   O10       1.0  0.53402  0.37429  0.87647  1.0000
  O   O11       1.0  0.37439  0.46611  0.87655  1.0000
  O   O12       1.0  0.62570  0.53405  0.87654  1.0000
  O   O13       1.0  0.53400  0.62572  0.62351  1.0000
  O   O14       1.0  0.46598  0.37425  0.62356  1.0000
  O   O15       1.0  0.62564  0.46607  0.62352  1.0000
  O   O16       1.0  0.37430  0.53400  0.62349  1.0000
  O   O17       1.0  0.59292  0.24990  0.99864  1.0000
  O   O18       1.0  0.40710  0.75009  0.99878  1.0000
  O   O19       1.0  0.75022  0.59289  0.99864  1.0000
  O   O20       1.0  0.25007  0.40689  0.99842  1.0000
  O   O21       1.0  0.40709  0.24991  0.50123  1.0000
  O   O22       1.0  0.59291  0.75012  0.50135  1.0000
  O   O23       1.0  0.24979  0.59289  0.50131  1.0000
  O   O24       1.0  0.74992  0.40689  0.50157  1.0000
  O   O25       1.0  0.92639  0.48266  0.29325  1.0000
  O   O26       1.0  0.06940  0.47990  0.20718  1.0000
