data_image0
_chemical_formula_structural       Tb2H48C89S8N8O26
_chemical_formula_sum              "Tb2 H48 C89 S8 N8 O26"
_cell_length_a       15.3339
_cell_length_b       15.3334
_cell_length_c       9.88362
_cell_angle_alpha    89.9982
_cell_angle_beta     90.0015
_cell_angle_gamma    90.0001

_space_group_name_H-M_alt    "P 1"
_space_group_IT_number       1

loop_
  _space_group_symop_operation_xyz
  'x, y, z'

loop_
  _atom_site_type_symbol
  _atom_site_label
  _atom_site_symmetry_multiplicity
  _atom_site_fract_x
  _atom_site_fract_y
  _atom_site_fract_z
  _atom_site_occupancy
  Tb  Tb1       1.0  0.50007  0.50004  0.25003  1.0000
  Tb  Tb2       1.0  0.50000  0.49998  0.75003  1.0000
  H   H1        1.0  0.41733  0.26418  0.21856  1.0000
  H   H2        1.0  0.28332  0.17463  0.21835  1.0000
  H   H3        1.0  0.58267  0.73583  0.21854  1.0000
  H   H4        1.0  0.71667  0.82538  0.21834  1.0000
  H   H5        1.0  0.73609  0.41747  0.21870  1.0000
  H   H6        1.0  0.82560  0.28348  0.21848  1.0000
  H   H7        1.0  0.26399  0.58255  0.21864  1.0000
  H   H8        1.0  0.17452  0.71657  0.21840  1.0000
  H   H9        1.0  0.58267  0.26418  0.28144  1.0000
  H   H10       1.0  0.71667  0.17464  0.28164  1.0000
  H   H11       1.0  0.41733  0.73583  0.28144  1.0000
  H   H12       1.0  0.28333  0.82538  0.28165  1.0000
  H   H13       1.0  0.26376  0.41749  0.28081  1.0000
  H   H14       1.0  0.17424  0.28350  0.28116  1.0000
  H   H15       1.0  0.73587  0.58262  0.28150  1.0000
  H   H16       1.0  0.82537  0.71664  0.28170  1.0000
  H   H17       1.0  0.58268  0.73582  0.78142  1.0000
  H   H18       1.0  0.71669  0.82536  0.78165  1.0000
  H   H19       1.0  0.41732  0.26420  0.78144  1.0000
  H   H20       1.0  0.28331  0.17466  0.78167  1.0000
  H   H21       1.0  0.26413  0.58263  0.78154  1.0000
  H   H22       1.0  0.17496  0.71679  0.78174  1.0000
  H   H23       1.0  0.73588  0.41729  0.78159  1.0000
  H   H24       1.0  0.82498  0.28319  0.78180  1.0000
  H   H25       1.0  0.41733  0.73581  0.71856  1.0000
  H   H26       1.0  0.28334  0.82536  0.71834  1.0000
  H   H27       1.0  0.58270  0.26419  0.71856  1.0000
  H   H28       1.0  0.71670  0.17465  0.71834  1.0000
  H   H29       1.0  0.73642  0.58230  0.71864  1.0000
  H   H30       1.0  0.82547  0.71653  0.71839  1.0000
  H   H31       1.0  0.26509  0.41670  0.71793  1.0000
  H   H32       1.0  0.17547  0.28296  0.71785  1.0000
  H   H33       1.0  0.16231  0.30597  0.99948  1.0000
  H   H34       1.0  0.99076  0.34624  0.00235  1.0000
  H   H35       1.0  0.83751  0.69413  0.99966  1.0000
  H   H36       1.0  0.00865  0.65347  0.00075  1.0000
  H   H37       1.0  0.69432  0.16250  0.99999  1.0000
  H   H38       1.0  0.65346  0.99144  0.00003  1.0000
  H   H39       1.0  0.30567  0.83751  0.99998  1.0000
  H   H40       1.0  0.34651  0.00855  0.00002  1.0000
  H   H41       1.0  0.83756  0.30588  0.50049  1.0000
  H   H42       1.0  0.00871  0.34655  0.49892  1.0000
  H   H43       1.0  0.16252  0.69420  0.50017  1.0000
  H   H44       1.0  0.99128  0.65347  0.49969  1.0000
  H   H45       1.0  0.30565  0.16247  0.49999  1.0000
  H   H46       1.0  0.34654  0.99145  0.49998  1.0000
  H   H47       1.0  0.69433  0.83749  0.50001  1.0000
  H   H48       1.0  0.65350  0.00854  0.49999  1.0000
  C   C1        1.0  0.38874  0.24364  0.12299  1.0000
  C   C2        1.0  0.31250  0.19412  0.12248  1.0000
  C   C3        1.0  0.61126  0.75636  0.12297  1.0000
  C   C4        1.0  0.68749  0.80587  0.12247  1.0000
  C   C5        1.0  0.75630  0.38868  0.12314  1.0000
  C   C6        1.0  0.80584  0.31247  0.12264  1.0000
  C   C7        1.0  0.24359  0.61120  0.12305  1.0000
  C   C8        1.0  0.19412  0.68747  0.12255  1.0000
  C   C9        1.0  0.61127  0.24365  0.37701  1.0000
  C   C10       1.0  0.68751  0.19413  0.37752  1.0000
  C   C11       1.0  0.38873  0.75635  0.37701  1.0000
  C   C12       1.0  0.31250  0.80586  0.37752  1.0000
  C   C13       1.0  0.24385  0.38854  0.37642  1.0000
  C   C14       1.0  0.19425  0.31236  0.37698  1.0000
  C   C15       1.0  0.75640  0.61122  0.37707  1.0000
  C   C16       1.0  0.80588  0.68747  0.37757  1.0000
  C   C17       1.0  0.61127  0.75635  0.87700  1.0000
  C   C18       1.0  0.68751  0.80585  0.87751  1.0000
  C   C19       1.0  0.38874  0.24367  0.87702  1.0000
  C   C20       1.0  0.31250  0.19417  0.87752  1.0000
  C   C21       1.0  0.24389  0.61135  0.87714  1.0000
  C   C22       1.0  0.19438  0.68758  0.87764  1.0000
  C   C23       1.0  0.75594  0.38847  0.87722  1.0000
  C   C24       1.0  0.80543  0.31224  0.87774  1.0000
  C   C25       1.0  0.38873  0.75634  0.62298  1.0000
  C   C26       1.0  0.31250  0.80585  0.62248  1.0000
  C   C27       1.0  0.61128  0.24366  0.62298  1.0000
  C   C28       1.0  0.68752  0.19415  0.62248  1.0000
  C   C29       1.0  0.75658  0.61108  0.62303  1.0000
  C   C30       1.0  0.80598  0.68739  0.62250  1.0000
  C   C31       1.0  0.24481  0.38800  0.62235  1.0000
  C   C32       1.0  0.19502  0.31197  0.62189  1.0000
  C   C33       1.0  0.42649  0.26776  0.00001  1.0000
  C   C34       1.0  0.27380  0.16903  0.99999  1.0000
  C   C35       1.0  0.19161  0.11696  0.99978  1.0000
  C   C36       1.0  0.11095  0.16555  0.99938  1.0000
  C   C37       1.0  0.10698  0.26168  0.99960  1.0000
  C   C38       1.0  0.02077  0.28214  0.00048  1.0000
  C   C39       1.0  0.97342  0.19920  0.00018  1.0000
  C   C40       1.0  0.57351  0.73225  0.99997  1.0000
  C   C41       1.0  0.72619  0.83098  0.99999  1.0000
  C   C42       1.0  0.80837  0.88305  0.99992  1.0000
  C   C43       1.0  0.88901  0.83448  0.99971  1.0000
  C   C44       1.0  0.89286  0.73838  0.99969  1.0000
  C   C45       1.0  0.97903  0.71777  1.00000  1.0000
  C   C46       1.0  0.02651  0.80069  0.99999  1.0000
  C   C47       1.0  0.73199  0.42632  0.00013  1.0000
  C   C48       1.0  0.83078  0.27363  0.00016  1.0000
  C   C49       1.0  0.88303  0.19155  0.00005  1.0000
  C   C50       1.0  0.83456  0.11090  0.99993  1.0000
  C   C51       1.0  0.73848  0.10709  0.00000  1.0000
  C   C52       1.0  0.71780  0.02094  0.00004  1.0000
  C   C53       1.0  0.80073  0.97346  0.00000  1.0000
  C   C54       1.0  0.26782  0.57348  0.00008  1.0000
  C   C55       1.0  0.16911  0.72625  0.00007  1.0000
  C   C56       1.0  0.11691  0.80838  0.99997  1.0000
  C   C57       1.0  0.16540  0.88906  0.99997  1.0000
  C   C58       1.0  0.26148  0.89290  0.00002  1.0000
  C   C59       1.0  0.28216  0.97905  0.00007  1.0000
  C   C60       1.0  0.19923  0.02655  0.00002  1.0000
  C   C61       1.0  0.57353  0.26777  0.50000  1.0000
  C   C62       1.0  0.72621  0.16901  0.50000  1.0000
  C   C63       1.0  0.80841  0.11692  0.50014  1.0000
  C   C64       1.0  0.88906  0.16553  0.50045  1.0000
  C   C65       1.0  0.89293  0.26165  0.50045  1.0000
  C   C66       1.0  0.97911  0.28226  0.49998  1.0000
  C   C67       1.0  0.02657  0.19934  0.49994  1.0000
  C   C68       1.0  0.42649  0.73223  0.50001  1.0000
  C   C69       1.0  0.27380  0.83096  0.49999  1.0000
  C   C70       1.0  0.19163  0.88305  0.50005  1.0000
  C   C71       1.0  0.11098  0.83449  0.50020  1.0000
  C   C72       1.0  0.10712  0.73838  0.50026  1.0000
  C   C73       1.0  0.02095  0.71775  0.50015  1.0000
  C   C74       1.0  0.97351  0.80069  0.50013  1.0000
  C   C75       1.0  0.26846  0.42600  0.49943  1.0000
  C   C76       1.0  0.16937  0.27354  0.49950  1.0000
  C   C77       1.0  0.11696  0.19158  0.49981  1.0000
  C   C78       1.0  0.16540  0.11088  0.49999  1.0000
  C   C79       1.0  0.26149  0.10706  0.49997  1.0000
  C   C80       1.0  0.28219  0.02093  0.49996  1.0000
  C   C81       1.0  0.19927  0.97344  0.50000  1.0000
  C   C82       1.0  0.73235  0.57341  0.50006  1.0000
  C   C83       1.0  0.83099  0.72619  0.50004  1.0000
  C   C84       1.0  0.88312  0.80836  0.50008  1.0000
  C   C85       1.0  0.83460  0.88903  0.50002  1.0000
  C   C86       1.0  0.73851  0.89288  0.49997  1.0000
  C   C87       1.0  0.71784  0.97903  0.49993  1.0000
  C   C88       1.0  0.80077  0.02652  0.49997  1.0000
  C   C89       1.0  0.01382  0.47941  0.77669  1.0000
  S   S1        1.0  0.53000  0.32019  0.00003  1.0000
  S   S2        1.0  0.46999  0.67981  0.00000  1.0000
  S   S3        1.0  0.67968  0.52992  0.00006  1.0000
  S   S4        1.0  0.32038  0.46997  0.00027  1.0000
  S   S5        1.0  0.47002  0.32021  0.49999  1.0000
  S   S6        1.0  0.53002  0.67977  0.50000  1.0000
  S   S7        1.0  0.32038  0.52978  0.49985  1.0000
  S   S8        1.0  0.67978  0.46994  0.50000  1.0000
  N   N1        1.0  0.03133  0.12998  0.99960  1.0000
  N   N2        1.0  0.96866  0.86998  0.99983  1.0000
  N   N3        1.0  0.87007  0.03126  0.99994  1.0000
  N   N4        1.0  0.12989  0.96872  0.99999  1.0000
  N   N5        1.0  0.96870  0.13005  0.50028  1.0000
  N   N6        1.0  0.03134  0.86999  0.50014  1.0000
  N   N7        1.0  0.12990  0.03124  0.50005  1.0000
  N   N8        1.0  0.87011  0.96868  0.50001  1.0000
  O   O1        1.0  0.53499  0.37464  0.12326  1.0000
  O   O2        1.0  0.46507  0.62541  0.12328  1.0000
  O   O3        1.0  0.62505  0.53487  0.12314  1.0000
  O   O4        1.0  0.37526  0.46547  0.12315  1.0000
  O   O5        1.0  0.46504  0.37472  0.37680  1.0000
  O   O6        1.0  0.53499  0.62532  0.37677  1.0000
  O   O7        1.0  0.37496  0.53518  0.37677  1.0000
  O   O8        1.0  0.62518  0.46517  0.37687  1.0000
  O   O9        1.0  0.46501  0.62527  0.87684  1.0000
  O   O10       1.0  0.53495  0.37471  0.87684  1.0000
  O   O11       1.0  0.37463  0.46490  0.87680  1.0000
  O   O12       1.0  0.62523  0.53499  0.87680  1.0000
  O   O13       1.0  0.53497  0.62525  0.62319  1.0000
  O   O14       1.0  0.46506  0.37471  0.62320  1.0000
  O   O15       1.0  0.62529  0.46499  0.62320  1.0000
  O   O16       1.0  0.37481  0.53494  0.62314  1.0000
  O   O17       1.0  0.59375  0.25047  0.99999  1.0000
  O   O18       1.0  0.40621  0.74951  0.99994  1.0000
  O   O19       1.0  0.74933  0.59373  0.00045  1.0000
  O   O20       1.0  0.25099  0.40592  0.00147  1.0000
  O   O21       1.0  0.40627  0.25049  0.49998  1.0000
  O   O22       1.0  0.59380  0.74947  0.50002  1.0000
  O   O23       1.0  0.25036  0.59320  0.49979  1.0000
  O   O24       1.0  0.74931  0.40599  0.49963  1.0000
  O   O25       1.0  0.93718  0.48231  0.77395  1.0000
  O   O26       1.0  0.09042  0.47654  0.77992  1.0000
