data_image0
_chemical_formula_structural       Tb2H48C89S8N8O26
_chemical_formula_sum              "Tb2 H48 C89 S8 N8 O26"
_cell_length_a       15.3339
_cell_length_b       15.3334
_cell_length_c       9.88362
_cell_angle_alpha    89.9982
_cell_angle_beta     90.0015
_cell_angle_gamma    90.0001

_space_group_name_H-M_alt    "P 1"
_space_group_IT_number       1

loop_
  _space_group_symop_operation_xyz
  'x, y, z'

loop_
  _atom_site_type_symbol
  _atom_site_label
  _atom_site_symmetry_multiplicity
  _atom_site_fract_x
  _atom_site_fract_y
  _atom_site_fract_z
  _atom_site_occupancy
  Tb  Tb1       1.0  0.50000  0.50000  0.25000  1.0000
  Tb  Tb2       1.0  0.50000  0.50000  0.75000  1.0000
  H   H1        1.0  0.41600  0.26466  0.21853  1.0000
  H   H2        1.0  0.28201  0.17444  0.21818  1.0000
  H   H3        1.0  0.58399  0.73534  0.21852  1.0000
  H   H4        1.0  0.71799  0.82556  0.21818  1.0000
  H   H5        1.0  0.73534  0.41600  0.21853  1.0000
  H   H6        1.0  0.82557  0.28201  0.21819  1.0000
  H   H7        1.0  0.26466  0.58399  0.21852  1.0000
  H   H8        1.0  0.17444  0.71798  0.21818  1.0000
  H   H9        1.0  0.58399  0.26466  0.28148  1.0000
  H   H10       1.0  0.71798  0.17445  0.28182  1.0000
  H   H11       1.0  0.41600  0.73535  0.28147  1.0000
  H   H12       1.0  0.28201  0.82556  0.28181  1.0000
  H   H13       1.0  0.26466  0.41601  0.28147  1.0000
  H   H14       1.0  0.17444  0.28202  0.28181  1.0000
  H   H15       1.0  0.73534  0.58399  0.28148  1.0000
  H   H16       1.0  0.82556  0.71798  0.28182  1.0000
  H   H17       1.0  0.58399  0.73534  0.78149  1.0000
  H   H18       1.0  0.71799  0.82555  0.78182  1.0000
  H   H19       1.0  0.41601  0.26467  0.78149  1.0000
  H   H20       1.0  0.28202  0.17445  0.78183  1.0000
  H   H21       1.0  0.26466  0.58399  0.78149  1.0000
  H   H22       1.0  0.17444  0.71798  0.78182  1.0000
  H   H23       1.0  0.73533  0.41602  0.78150  1.0000
  H   H24       1.0  0.82555  0.28203  0.78183  1.0000
  H   H25       1.0  0.41602  0.73533  0.71851  1.0000
  H   H26       1.0  0.28202  0.82555  0.71817  1.0000
  H   H27       1.0  0.58399  0.26466  0.71852  1.0000
  H   H28       1.0  0.71799  0.17445  0.71818  1.0000
  H   H29       1.0  0.73533  0.58399  0.71851  1.0000
  H   H30       1.0  0.82556  0.71798  0.71818  1.0000
  H   H31       1.0  0.26467  0.41601  0.71850  1.0000
  H   H32       1.0  0.17444  0.28202  0.71818  1.0000
  H   H33       1.0  0.16220  0.30599  1.00000  1.0000
  H   H34       1.0  0.99156  0.34669  0.00001  1.0000
  H   H35       1.0  0.83780  0.69401  1.00000  1.0000
  H   H36       1.0  0.00843  0.65331  0.00000  1.0000
  H   H37       1.0  0.69403  0.16221  0.00000  1.0000
  H   H38       1.0  0.65332  0.99157  1.00000  1.0000
  H   H39       1.0  0.30597  0.83779  1.00000  1.0000
  H   H40       1.0  0.34668  0.00843  0.00000  1.0000
  H   H41       1.0  0.83779  0.30599  0.50000  1.0000
  H   H42       1.0  0.00843  0.34669  0.49999  1.0000
  H   H43       1.0  0.16221  0.69401  0.50000  1.0000
  H   H44       1.0  0.99156  0.65331  0.50000  1.0000
  H   H45       1.0  0.30598  0.16221  0.50000  1.0000
  H   H46       1.0  0.34668  0.99157  0.50000  1.0000
  H   H47       1.0  0.69402  0.83779  0.50000  1.0000
  H   H48       1.0  0.65332  0.00843  0.50000  1.0000
  C   C1        1.0  0.38749  0.24396  0.12306  1.0000
  C   C2        1.0  0.31143  0.19424  0.12259  1.0000
  C   C3        1.0  0.61251  0.75604  0.12305  1.0000
  C   C4        1.0  0.68857  0.80576  0.12259  1.0000
  C   C5        1.0  0.75604  0.38748  0.12306  1.0000
  C   C6        1.0  0.80577  0.31143  0.12260  1.0000
  C   C7        1.0  0.24396  0.61251  0.12305  1.0000
  C   C8        1.0  0.19424  0.68856  0.12259  1.0000
  C   C9        1.0  0.61251  0.24396  0.37695  1.0000
  C   C10       1.0  0.68857  0.19424  0.37741  1.0000
  C   C11       1.0  0.38748  0.75604  0.37694  1.0000
  C   C12       1.0  0.31143  0.80577  0.37741  1.0000
  C   C13       1.0  0.24396  0.38748  0.37694  1.0000
  C   C14       1.0  0.19423  0.31144  0.37740  1.0000
  C   C15       1.0  0.75604  0.61251  0.37695  1.0000
  C   C16       1.0  0.80577  0.68856  0.37741  1.0000
  C   C17       1.0  0.61251  0.75604  0.87697  1.0000
  C   C18       1.0  0.68857  0.80576  0.87740  1.0000
  C   C19       1.0  0.38749  0.24396  0.87698  1.0000
  C   C20       1.0  0.31143  0.19424  0.87741  1.0000
  C   C21       1.0  0.24397  0.61252  0.87697  1.0000
  C   C22       1.0  0.19424  0.68857  0.87740  1.0000
  C   C23       1.0  0.75603  0.38749  0.87698  1.0000
  C   C24       1.0  0.80575  0.31144  0.87741  1.0000
  C   C25       1.0  0.38749  0.75603  0.62302  1.0000
  C   C26       1.0  0.31144  0.80576  0.62259  1.0000
  C   C27       1.0  0.61252  0.24396  0.62303  1.0000
  C   C28       1.0  0.68857  0.19424  0.62260  1.0000
  C   C29       1.0  0.75603  0.61251  0.62303  1.0000
  C   C30       1.0  0.80576  0.68856  0.62260  1.0000
  C   C31       1.0  0.24398  0.38748  0.62302  1.0000
  C   C32       1.0  0.19424  0.31143  0.62258  1.0000
  C   C33       1.0  0.42524  0.26794  0.00000  1.0000
  C   C34       1.0  0.27311  0.16904  0.00001  1.0000
  C   C35       1.0  0.19126  0.11686  1.00000  1.0000
  C   C36       1.0  0.11082  0.16547  1.00000  1.0000
  C   C37       1.0  0.10700  0.26158  1.00000  1.0000
  C   C38       1.0  0.02084  0.28223  0.99999  1.0000
  C   C39       1.0  0.97347  0.19920  1.00000  1.0000
  C   C40       1.0  0.57476  0.73206  0.99999  1.0000
  C   C41       1.0  0.72689  0.83097  0.00001  1.0000
  C   C42       1.0  0.80873  0.88314  0.00000  1.0000
  C   C43       1.0  0.88918  0.83453  1.00000  1.0000
  C   C44       1.0  0.89300  0.73842  1.00000  1.0000
  C   C45       1.0  0.97916  0.71777  0.99999  1.0000
  C   C46       1.0  0.02653  0.80080  0.99999  1.0000
  C   C47       1.0  0.73205  0.42523  0.99999  1.0000
  C   C48       1.0  0.83097  0.27312  0.00001  1.0000
  C   C49       1.0  0.88315  0.19127  0.00000  1.0000
  C   C50       1.0  0.83454  0.11082  1.00000  1.0000
  C   C51       1.0  0.73844  0.10700  0.00000  1.0000
  C   C52       1.0  0.71778  0.02084  1.00000  1.0000
  C   C53       1.0  0.80080  0.97347  1.00000  1.0000
  C   C54       1.0  0.26795  0.57476  0.99999  1.0000
  C   C55       1.0  0.16903  0.72688  0.00001  1.0000
  C   C56       1.0  0.11685  0.80873  1.00000  1.0000
  C   C57       1.0  0.16546  0.88918  0.99999  1.0000
  C   C58       1.0  0.26156  0.89300  1.00000  1.0000
  C   C59       1.0  0.28222  0.97916  1.00000  1.0000
  C   C60       1.0  0.19920  0.02653  0.99999  1.0000
  C   C61       1.0  0.57476  0.26795  0.50000  1.0000
  C   C62       1.0  0.72689  0.16903  0.49999  1.0000
  C   C63       1.0  0.80873  0.11685  0.50000  1.0000
  C   C64       1.0  0.88918  0.16546  0.50001  1.0000
  C   C65       1.0  0.89300  0.26158  0.50001  1.0000
  C   C66       1.0  0.97916  0.28223  0.50001  1.0000
  C   C67       1.0  0.02653  0.19921  0.50001  1.0000
  C   C68       1.0  0.42524  0.73205  0.50000  1.0000
  C   C69       1.0  0.27311  0.83097  0.49999  1.0000
  C   C70       1.0  0.19127  0.88315  0.50000  1.0000
  C   C71       1.0  0.11082  0.83454  0.50000  1.0000
  C   C72       1.0  0.10700  0.73842  0.50000  1.0000
  C   C73       1.0  0.02084  0.71777  0.50000  1.0000
  C   C74       1.0  0.97347  0.80079  0.50000  1.0000
  C   C75       1.0  0.26795  0.42524  0.50001  1.0000
  C   C76       1.0  0.16902  0.27312  0.50000  1.0000
  C   C77       1.0  0.11684  0.19127  0.50000  1.0000
  C   C78       1.0  0.16545  0.11082  0.50000  1.0000
  C   C79       1.0  0.26156  0.10700  0.50000  1.0000
  C   C80       1.0  0.28222  0.02085  0.50000  1.0000
  C   C81       1.0  0.19920  0.97347  0.50000  1.0000
  C   C82       1.0  0.73205  0.57476  0.50001  1.0000
  C   C83       1.0  0.83098  0.72688  0.49999  1.0000
  C   C84       1.0  0.88316  0.80873  0.50000  1.0000
  C   C85       1.0  0.83455  0.88918  0.50000  1.0000
  C   C86       1.0  0.73844  0.89300  0.50000  1.0000
  C   C87       1.0  0.71778  0.97915  0.50000  1.0000
  C   C88       1.0  0.80080  0.02653  0.50000  1.0000
  C   C89       1.0  0.01545  0.47723  0.77697  1.0000
  S   S1        1.0  0.52870  0.32029  0.00002  1.0000
  S   S2        1.0  0.47130  0.67971  0.00000  1.0000
  S   S3        1.0  0.67972  0.52870  0.00001  1.0000
  S   S4        1.0  0.32028  0.47129  0.00000  1.0000
  S   S5        1.0  0.47130  0.32029  0.49999  1.0000
  S   S6        1.0  0.52871  0.67971  0.49999  1.0000
  S   S7        1.0  0.32029  0.52870  0.49999  1.0000
  S   S8        1.0  0.67971  0.47129  0.50000  1.0000
  N   N1        1.0  0.03120  0.12991  1.00000  1.0000
  N   N2        1.0  0.96880  0.87009  0.99999  1.0000
  N   N3        1.0  0.87010  0.03120  1.00000  1.0000
  N   N4        1.0  0.12990  0.96880  0.99999  1.0000
  N   N5        1.0  0.96880  0.12991  0.50001  1.0000
  N   N6        1.0  0.03120  0.87009  0.50000  1.0000
  N   N7        1.0  0.12990  0.03120  0.50000  1.0000
  N   N8        1.0  0.87010  0.96880  0.50000  1.0000
  O   O1        1.0  0.53339  0.37474  0.12319  1.0000
  O   O2        1.0  0.46661  0.62525  0.12318  1.0000
  O   O3        1.0  0.62525  0.53339  0.12320  1.0000
  O   O4        1.0  0.37476  0.46661  0.12319  1.0000
  O   O5        1.0  0.46660  0.37475  0.37682  1.0000
  O   O6        1.0  0.53339  0.62525  0.37681  1.0000
  O   O7        1.0  0.37475  0.53339  0.37680  1.0000
  O   O8        1.0  0.62524  0.46661  0.37682  1.0000
  O   O9        1.0  0.46660  0.62527  0.87681  1.0000
  O   O10       1.0  0.53339  0.37474  0.87682  1.0000
  O   O11       1.0  0.37474  0.46661  0.87681  1.0000
  O   O12       1.0  0.62525  0.53340  0.87682  1.0000
  O   O13       1.0  0.53340  0.62526  0.62318  1.0000
  O   O14       1.0  0.46661  0.37474  0.62318  1.0000
  O   O15       1.0  0.62526  0.46661  0.62319  1.0000
  O   O16       1.0  0.37475  0.53339  0.62317  1.0000
  O   O17       1.0  0.59261  0.25071  0.00002  1.0000
  O   O18       1.0  0.40739  0.74929  0.00000  1.0000
  O   O19       1.0  0.74927  0.59262  0.00001  1.0000
  O   O20       1.0  0.25073  0.40738  0.00001  1.0000
  O   O21       1.0  0.40739  0.25071  0.50000  1.0000
  O   O22       1.0  0.59261  0.74929  0.49999  1.0000
  O   O23       1.0  0.25072  0.59262  0.49998  1.0000
  O   O24       1.0  0.74928  0.40738  0.49999  1.0000
  O   O25       1.0  0.93939  0.48044  0.77637  1.0000
  O   O26       1.0  0.09143  0.47402  0.77750  1.0000
