data_image0
_chemical_formula_structural       Tb2H48C89S8N8O26
_chemical_formula_sum              "Tb2 H48 C89 S8 N8 O26"
_cell_length_a       15.3339
_cell_length_b       15.3334
_cell_length_c       9.88362
_cell_angle_alpha    89.9982
_cell_angle_beta     90.0015
_cell_angle_gamma    90.0001

_space_group_name_H-M_alt    "P 1"
_space_group_IT_number       1

loop_
  _space_group_symop_operation_xyz
  'x, y, z'

loop_
  _atom_site_type_symbol
  _atom_site_label
  _atom_site_symmetry_multiplicity
  _atom_site_fract_x
  _atom_site_fract_y
  _atom_site_fract_z
  _atom_site_occupancy
  Tb  Tb1       1.0  0.50049  0.49977  0.24971  1.0000
  Tb  Tb2       1.0  0.50016  0.50003  0.74971  1.0000
  H   H1        1.0  0.41860  0.26311  0.21849  1.0000
  H   H2        1.0  0.28416  0.17435  0.21847  1.0000
  H   H3        1.0  0.58142  0.73691  0.21849  1.0000
  H   H4        1.0  0.71570  0.82595  0.21829  1.0000
  H   H5        1.0  0.73694  0.41862  0.21847  1.0000
  H   H6        1.0  0.82568  0.28417  0.21839  1.0000
  H   H7        1.0  0.26300  0.58148  0.21890  1.0000
  H   H8        1.0  0.17398  0.71566  0.21878  1.0000
  H   H9        1.0  0.58170  0.26271  0.28165  1.0000
  H   H10       1.0  0.71615  0.17392  0.28199  1.0000
  H   H11       1.0  0.41874  0.73699  0.28138  1.0000
  H   H12       1.0  0.28434  0.82575  0.28178  1.0000
  H   H13       1.0  0.26195  0.41921  0.28027  1.0000
  H   H14       1.0  0.17208  0.28539  0.28058  1.0000
  H   H15       1.0  0.73698  0.58130  0.28154  1.0000
  H   H16       1.0  0.82571  0.71578  0.28150  1.0000
  H   H17       1.0  0.58137  0.73683  0.78142  1.0000
  H   H18       1.0  0.71566  0.82573  0.78136  1.0000
  H   H19       1.0  0.41863  0.26290  0.78139  1.0000
  H   H20       1.0  0.28448  0.17377  0.78160  1.0000
  H   H21       1.0  0.26326  0.58167  0.78174  1.0000
  H   H22       1.0  0.17433  0.71587  0.78185  1.0000
  H   H23       1.0  0.73784  0.41916  0.78143  1.0000
  H   H24       1.0  0.82642  0.28478  0.78144  1.0000
  H   H25       1.0  0.41897  0.73669  0.71845  1.0000
  H   H26       1.0  0.28453  0.82533  0.71870  1.0000
  H   H27       1.0  0.58159  0.26292  0.71880  1.0000
  H   H28       1.0  0.71611  0.17430  0.71890  1.0000
  H   H29       1.0  0.73800  0.58081  0.71860  1.0000
  H   H30       1.0  0.82639  0.71542  0.71842  1.0000
  H   H31       1.0  0.26809  0.41566  0.71693  1.0000
  H   H32       1.0  0.17873  0.28152  0.71725  1.0000
  H   H33       1.0  0.16299  0.30585  0.99942  1.0000
  H   H34       1.0  0.99198  0.34703  0.99918  1.0000
  H   H35       1.0  0.83702  0.69416  0.99941  1.0000
  H   H36       1.0  0.00782  0.65307  0.00072  1.0000
  H   H37       1.0  0.69425  0.16299  0.00008  1.0000
  H   H38       1.0  0.65307  0.99216  0.00013  1.0000
  H   H39       1.0  0.30564  0.83705  0.00008  1.0000
  H   H40       1.0  0.34681  0.00791  0.00007  1.0000
  H   H41       1.0  0.83741  0.30597  0.49997  1.0000
  H   H42       1.0  0.00829  0.34684  0.49671  1.0000
  H   H43       1.0  0.16282  0.69361  0.50051  1.0000
  H   H44       1.0  0.99205  0.65293  0.49750  1.0000
  H   H45       1.0  0.30611  0.16257  0.49987  1.0000
  H   H46       1.0  0.34694  0.99165  0.50002  1.0000
  H   H47       1.0  0.69423  0.83721  0.49998  1.0000
  H   H48       1.0  0.65329  0.00800  0.49996  1.0000
  C   C1        1.0  0.38998  0.24268  0.12285  1.0000
  C   C2        1.0  0.31342  0.19358  0.12250  1.0000
  C   C3        1.0  0.61000  0.75737  0.12283  1.0000
  C   C4        1.0  0.68648  0.80657  0.12236  1.0000
  C   C5        1.0  0.75750  0.39010  0.12283  1.0000
  C   C6        1.0  0.80650  0.31351  0.12246  1.0000
  C   C7        1.0  0.24265  0.61005  0.12318  1.0000
  C   C8        1.0  0.19344  0.68653  0.12283  1.0000
  C   C9        1.0  0.61033  0.24240  0.37735  1.0000
  C   C10       1.0  0.68688  0.19333  0.37787  1.0000
  C   C11       1.0  0.39012  0.75725  0.37710  1.0000
  C   C12       1.0  0.31357  0.80635  0.37768  1.0000
  C   C13       1.0  0.24205  0.39032  0.37596  1.0000
  C   C14       1.0  0.19265  0.31398  0.37638  1.0000
  C   C15       1.0  0.75757  0.60983  0.37715  1.0000
  C   C16       1.0  0.80655  0.68644  0.37745  1.0000
  C   C17       1.0  0.61001  0.75730  0.87697  1.0000
  C   C18       1.0  0.68651  0.80647  0.87740  1.0000
  C   C19       1.0  0.39000  0.24252  0.87701  1.0000
  C   C20       1.0  0.31355  0.19329  0.87757  1.0000
  C   C21       1.0  0.24300  0.61036  0.87732  1.0000
  C   C22       1.0  0.19371  0.68677  0.87787  1.0000
  C   C23       1.0  0.75777  0.39025  0.87701  1.0000
  C   C24       1.0  0.80681  0.31369  0.87748  1.0000
  C   C25       1.0  0.39022  0.75707  0.62292  1.0000
  C   C26       1.0  0.31364  0.80611  0.62262  1.0000
  C   C27       1.0  0.61028  0.24252  0.62325  1.0000
  C   C28       1.0  0.68688  0.19351  0.62289  1.0000
  C   C29       1.0  0.75801  0.60964  0.62299  1.0000
  C   C30       1.0  0.80698  0.68627  0.62243  1.0000
  C   C31       1.0  0.24606  0.38788  0.62165  1.0000
  C   C32       1.0  0.19656  0.31162  0.62125  1.0000
  C   C33       1.0  0.42786  0.26676  0.99992  1.0000
  C   C34       1.0  0.27448  0.16864  0.00003  1.0000
  C   C35       1.0  0.19194  0.11686  0.99992  1.0000
  C   C36       1.0  0.11130  0.16559  0.99956  1.0000
  C   C37       1.0  0.10757  0.26168  0.99932  1.0000
  C   C38       1.0  0.02141  0.28256  0.99917  1.0000
  C   C39       1.0  0.97371  0.19964  0.99935  1.0000
  C   C40       1.0  0.57216  0.73316  0.99994  1.0000
  C   C41       1.0  0.72547  0.83135  0.99983  1.0000
  C   C42       1.0  0.80797  0.88320  0.99975  1.0000
  C   C43       1.0  0.88863  0.83450  0.99947  1.0000
  C   C44       1.0  0.89237  0.73841  0.99947  1.0000
  C   C45       1.0  0.97852  0.71757  0.99982  1.0000
  C   C46       1.0  0.02623  0.80045  0.99980  1.0000
  C   C47       1.0  0.73353  0.42805  0.99987  1.0000
  C   C48       1.0  0.83138  0.27459  0.99991  1.0000
  C   C49       1.0  0.88317  0.19206  0.99977  1.0000
  C   C50       1.0  0.83454  0.11133  1.00000  1.0000
  C   C51       1.0  0.73846  0.10759  0.00010  1.0000
  C   C52       1.0  0.71759  0.02145  0.00010  1.0000
  C   C53       1.0  0.80049  0.97374  1.00000  1.0000
  C   C54       1.0  0.26702  0.57236  0.00020  1.0000
  C   C55       1.0  0.16867  0.72557  0.00032  1.0000
  C   C56       1.0  0.11676  0.80803  0.00012  1.0000
  C   C57       1.0  0.16538  0.88874  0.00007  1.0000
  C   C58       1.0  0.26145  0.89246  0.00007  1.0000
  C   C59       1.0  0.28231  0.97861  0.00006  1.0000
  C   C60       1.0  0.19941  0.02632  0.00002  1.0000
  C   C61       1.0  0.57243  0.26653  0.50022  1.0000
  C   C62       1.0  0.72587  0.16869  0.50045  1.0000
  C   C63       1.0  0.80834  0.11681  0.50049  1.0000
  C   C64       1.0  0.88898  0.16552  0.50049  1.0000
  C   C65       1.0  0.89271  0.26163  0.49979  1.0000
  C   C66       1.0  0.97888  0.28239  0.49862  1.0000
  C   C67       1.0  0.02659  0.19949  0.49923  1.0000
  C   C68       1.0  0.42806  0.73303  0.49989  1.0000
  C   C69       1.0  0.27459  0.83102  0.50026  1.0000
  C   C70       1.0  0.19206  0.88291  0.50051  1.0000
  C   C71       1.0  0.11142  0.83417  0.50086  1.0000
  C   C72       1.0  0.10760  0.73806  0.50035  1.0000
  C   C73       1.0  0.02142  0.71738  0.49944  1.0000
  C   C74       1.0  0.97376  0.80031  0.50009  1.0000
  C   C75       1.0  0.26793  0.42711  0.49881  1.0000
  C   C76       1.0  0.16929  0.27414  0.49895  1.0000
  C   C77       1.0  0.11710  0.19184  0.49939  1.0000
  C   C78       1.0  0.16569  0.11110  0.50009  1.0000
  C   C79       1.0  0.26179  0.10725  0.50005  1.0000
  C   C80       1.0  0.28250  0.02107  0.50009  1.0000
  C   C81       1.0  0.19957  0.97345  0.50019  1.0000
  C   C82       1.0  0.73365  0.57187  0.50010  1.0000
  C   C83       1.0  0.83145  0.72542  0.49992  1.0000
  C   C84       1.0  0.88326  0.80798  0.49998  1.0000
  C   C85       1.0  0.83464  0.88869  0.50000  1.0000
  C   C86       1.0  0.73855  0.89253  0.50002  1.0000
  C   C87       1.0  0.71779  0.97869  0.50007  1.0000
  C   C88       1.0  0.80074  0.02632  0.50014  1.0000
  C   C89       1.0  0.01454  0.50403  0.71637  1.0000
  S   S1        1.0  0.53088  0.32035  0.99970  1.0000
  S   S2        1.0  0.46926  0.67940  0.99991  1.0000
  S   S3        1.0  0.67987  0.53095  0.99979  1.0000
  S   S4        1.0  0.32053  0.46931  0.99986  1.0000
  S   S5        1.0  0.46947  0.32016  0.49966  1.0000
  S   S6        1.0  0.53116  0.67957  0.49965  1.0000
  S   S7        1.0  0.32100  0.53039  0.49896  1.0000
  S   S8        1.0  0.67986  0.46896  0.50007  1.0000
  N   N1        1.0  0.03152  0.13028  0.99955  1.0000
  N   N2        1.0  0.96840  0.86983  0.99961  1.0000
  N   N3        1.0  0.86989  0.03155  0.00008  1.0000
  N   N4        1.0  0.13001  0.96851  0.00012  1.0000
  N   N5        1.0  0.96872  0.13015  0.50026  1.0000
  N   N6        1.0  0.03169  0.86958  0.50091  1.0000
  N   N7        1.0  0.13024  0.03139  0.49997  1.0000
  N   N8        1.0  0.87007  0.96842  0.49981  1.0000
  O   O1        1.0  0.53519  0.37475  0.12301  1.0000
  O   O2        1.0  0.46524  0.62480  0.12304  1.0000
  O   O3        1.0  0.62538  0.53490  0.12311  1.0000
  O   O4        1.0  0.37500  0.46494  0.12309  1.0000
  O   O5        1.0  0.46553  0.37385  0.37561  1.0000
  O   O6        1.0  0.53568  0.62575  0.37578  1.0000
  O   O7        1.0  0.37696  0.53385  0.37711  1.0000
  O   O8        1.0  0.62509  0.46528  0.37699  1.0000
  O   O9        1.0  0.46536  0.62507  0.87643  1.0000
  O   O10       1.0  0.53478  0.37489  0.87644  1.0000
  O   O11       1.0  0.37500  0.46531  0.87653  1.0000
  O   O12       1.0  0.62535  0.53495  0.87651  1.0000
  O   O13       1.0  0.53498  0.62454  0.62247  1.0000
  O   O14       1.0  0.46545  0.37532  0.62231  1.0000
  O   O15       1.0  0.62565  0.46488  0.62360  1.0000
  O   O16       1.0  0.37410  0.53510  0.62364  1.0000
  O   O17       1.0  0.59571  0.25165  0.99934  1.0000
  O   O18       1.0  0.40423  0.74792  0.99998  1.0000
  O   O19       1.0  0.74830  0.59606  0.99990  1.0000
  O   O20       1.0  0.25176  0.40451  0.99948  1.0000
  O   O21       1.0  0.40454  0.25154  0.50069  1.0000
  O   O22       1.0  0.59593  0.74834  0.50105  1.0000
  O   O23       1.0  0.25249  0.59529  0.49551  1.0000
  O   O24       1.0  0.74830  0.40388  0.49935  1.0000
  O   O25       1.0  0.94295  0.48540  0.74799  1.0000
  O   O26       1.0  0.08593  0.52275  0.68403  1.0000
