data_image0
_chemical_formula_structural       Tb2H48C89S8N8O26
_chemical_formula_sum              "Tb2 H48 C89 S8 N8 O26"
_cell_length_a       15.3339
_cell_length_b       15.3334
_cell_length_c       9.88362
_cell_angle_alpha    89.9982
_cell_angle_beta     90.0015
_cell_angle_gamma    90.0001

_space_group_name_H-M_alt    "P 1"
_space_group_IT_number       1

loop_
  _space_group_symop_operation_xyz
  'x, y, z'

loop_
  _atom_site_type_symbol
  _atom_site_label
  _atom_site_symmetry_multiplicity
  _atom_site_fract_x
  _atom_site_fract_y
  _atom_site_fract_z
  _atom_site_occupancy
  Tb  Tb1       1.0  0.49994  0.50013  0.25022  1.0000
  Tb  Tb2       1.0  0.50015  0.50019  0.74991  1.0000
  H   H1        1.0  0.41919  0.26381  0.21862  1.0000
  H   H2        1.0  0.28482  0.17493  0.21885  1.0000
  H   H3        1.0  0.58166  0.73673  0.21879  1.0000
  H   H4        1.0  0.71599  0.82563  0.21857  1.0000
  H   H5        1.0  0.73840  0.41866  0.21863  1.0000
  H   H6        1.0  0.82785  0.28473  0.21827  1.0000
  H   H7        1.0  0.26182  0.58163  0.21839  1.0000
  H   H8        1.0  0.17360  0.71639  0.21797  1.0000
  H   H9        1.0  0.58154  0.26313  0.28142  1.0000
  H   H10       1.0  0.71589  0.17431  0.28148  1.0000
  H   H11       1.0  0.41844  0.73695  0.28144  1.0000
  H   H12       1.0  0.28411  0.82581  0.28159  1.0000
  H   H13       1.0  0.26294  0.41872  0.28143  1.0000
  H   H14       1.0  0.17400  0.28447  0.28153  1.0000
  H   H15       1.0  0.73746  0.58109  0.28133  1.0000
  H   H16       1.0  0.82627  0.71539  0.28143  1.0000
  H   H17       1.0  0.58170  0.73676  0.78142  1.0000
  H   H18       1.0  0.71600  0.82568  0.78172  1.0000
  H   H19       1.0  0.41890  0.26358  0.78138  1.0000
  H   H20       1.0  0.28459  0.17456  0.78192  1.0000
  H   H21       1.0  0.26226  0.58139  0.78130  1.0000
  H   H22       1.0  0.17404  0.71616  0.78092  1.0000
  H   H23       1.0  0.73564  0.41729  0.78153  1.0000
  H   H24       1.0  0.82484  0.28325  0.78117  1.0000
  H   H25       1.0  0.41849  0.73696  0.71861  1.0000
  H   H26       1.0  0.28419  0.82583  0.71852  1.0000
  H   H27       1.0  0.58156  0.26303  0.71858  1.0000
  H   H28       1.0  0.71577  0.17404  0.71839  1.0000
  H   H29       1.0  0.73756  0.58104  0.71854  1.0000
  H   H30       1.0  0.82626  0.71548  0.71833  1.0000
  H   H31       1.0  0.26301  0.41863  0.71862  1.0000
  H   H32       1.0  0.17403  0.28439  0.71843  1.0000
  H   H33       1.0  0.16310  0.30533  0.99806  1.0000
  H   H34       1.0  0.99198  0.34518  0.99377  1.0000
  H   H35       1.0  0.83768  0.69531  0.99614  1.0000
  H   H36       1.0  0.01075  0.65623  0.99346  1.0000
  H   H37       1.0  0.69417  0.16325  0.00025  1.0000
  H   H38       1.0  0.65273  0.99259  0.00051  1.0000
  H   H39       1.0  0.30721  0.83754  0.00035  1.0000
  H   H40       1.0  0.34811  0.00825  0.00034  1.0000
  H   H41       1.0  0.83696  0.30570  0.50002  1.0000
  H   H42       1.0  0.00769  0.34694  0.49981  1.0000
  H   H43       1.0  0.16306  0.69433  0.49954  1.0000
  H   H44       1.0  0.99224  0.65310  0.49905  1.0000
  H   H45       1.0  0.30552  0.16309  0.49999  1.0000
  H   H46       1.0  0.34663  0.99214  0.50002  1.0000
  H   H47       1.0  0.69450  0.83690  0.50005  1.0000
  H   H48       1.0  0.65337  0.00785  0.50002  1.0000
  C   C1        1.0  0.39033  0.24346  0.12311  1.0000
  C   C2        1.0  0.31390  0.19423  0.12282  1.0000
  C   C3        1.0  0.61035  0.75706  0.12314  1.0000
  C   C4        1.0  0.68678  0.80633  0.12262  1.0000
  C   C5        1.0  0.75804  0.38954  0.12294  1.0000
  C   C6        1.0  0.80774  0.31337  0.12229  1.0000
  C   C7        1.0  0.24193  0.61056  0.12270  1.0000
  C   C8        1.0  0.19295  0.68719  0.12202  1.0000
  C   C9        1.0  0.61019  0.24268  0.37703  1.0000
  C   C10       1.0  0.68667  0.19350  0.37748  1.0000
  C   C11       1.0  0.38980  0.75740  0.37707  1.0000
  C   C12       1.0  0.31333  0.80658  0.37758  1.0000
  C   C13       1.0  0.24258  0.39003  0.37705  1.0000
  C   C14       1.0  0.19337  0.31357  0.37752  1.0000
  C   C15       1.0  0.75769  0.60985  0.37697  1.0000
  C   C16       1.0  0.80683  0.68635  0.37742  1.0000
  C   C17       1.0  0.61038  0.75708  0.87711  1.0000
  C   C18       1.0  0.68678  0.80635  0.87764  1.0000
  C   C19       1.0  0.39019  0.24331  0.87708  1.0000
  C   C20       1.0  0.31380  0.19401  0.87780  1.0000
  C   C21       1.0  0.24216  0.61042  0.87681  1.0000
  C   C22       1.0  0.19319  0.68704  0.87702  1.0000
  C   C23       1.0  0.75634  0.38866  0.87701  1.0000
  C   C24       1.0  0.80588  0.31243  0.87730  1.0000
  C   C25       1.0  0.38984  0.75740  0.62299  1.0000
  C   C26       1.0  0.31336  0.80659  0.62252  1.0000
  C   C27       1.0  0.61019  0.24261  0.62293  1.0000
  C   C28       1.0  0.68662  0.19336  0.62241  1.0000
  C   C29       1.0  0.75774  0.60984  0.62291  1.0000
  C   C30       1.0  0.80683  0.68638  0.62237  1.0000
  C   C31       1.0  0.24261  0.38997  0.62298  1.0000
  C   C32       1.0  0.19340  0.31351  0.62246  1.0000
  C   C33       1.0  0.42799  0.26758  0.00000  1.0000
  C   C34       1.0  0.27500  0.16923  0.00041  1.0000
  C   C35       1.0  0.19289  0.11694  0.00071  1.0000
  C   C36       1.0  0.11189  0.16492  0.00129  1.0000
  C   C37       1.0  0.10791  0.26090  0.99919  1.0000
  C   C38       1.0  0.02175  0.28122  0.99817  1.0000
  C   C39       1.0  0.97417  0.19845  0.00037  1.0000
  C   C40       1.0  0.57259  0.73290  0.00012  1.0000
  C   C41       1.0  0.72564  0.83125  0.00015  1.0000
  C   C42       1.0  0.80780  0.88348  0.00009  1.0000
  C   C43       1.0  0.88887  0.83552  0.99962  1.0000
  C   C44       1.0  0.89311  0.73951  0.99689  1.0000
  C   C45       1.0  0.97945  0.71956  0.99603  1.0000
  C   C46       1.0  0.02666  0.80246  0.99872  1.0000
  C   C47       1.0  0.73283  0.42681  0.00002  1.0000
  C   C48       1.0  0.83194  0.27413  0.99965  1.0000
  C   C49       1.0  0.88363  0.19154  0.99979  1.0000
  C   C50       1.0  0.83442  0.11129  0.99960  1.0000
  C   C51       1.0  0.73835  0.10780  0.00010  1.0000
  C   C52       1.0  0.71731  0.02170  0.00028  1.0000
  C   C53       1.0  0.80006  0.97386  0.99987  1.0000
  C   C54       1.0  0.26631  0.57268  0.99986  1.0000
  C   C55       1.0  0.16845  0.72620  0.99939  1.0000
  C   C56       1.0  0.11725  0.80908  0.99936  1.0000
  C   C57       1.0  0.16668  0.88914  0.99991  1.0000
  C   C58       1.0  0.26278  0.89278  0.00031  1.0000
  C   C59       1.0  0.28363  0.97892  0.00025  1.0000
  C   C60       1.0  0.20079  0.02659  0.00000  1.0000
  C   C61       1.0  0.57236  0.26682  0.50000  1.0000
  C   C62       1.0  0.72558  0.16855  0.49994  1.0000
  C   C63       1.0  0.80805  0.11669  0.49997  1.0000
  C   C64       1.0  0.88868  0.16544  0.49999  1.0000
  C   C65       1.0  0.89237  0.26153  0.49995  1.0000
  C   C66       1.0  0.97847  0.28244  0.49988  1.0000
  C   C67       1.0  0.02622  0.19958  0.49994  1.0000
  C   C68       1.0  0.42767  0.73326  0.50002  1.0000
  C   C69       1.0  0.27442  0.83147  0.50006  1.0000
  C   C70       1.0  0.19195  0.88331  0.50008  1.0000
  C   C71       1.0  0.11133  0.83457  0.50007  1.0000
  C   C72       1.0  0.10763  0.73848  0.49971  1.0000
  C   C73       1.0  0.02153  0.71757  0.49957  1.0000
  C   C74       1.0  0.97379  0.80043  0.49992  1.0000
  C   C75       1.0  0.26682  0.42779  0.50003  1.0000
  C   C76       1.0  0.16856  0.27458  0.49998  1.0000
  C   C77       1.0  0.11669  0.19211  0.49997  1.0000
  C   C78       1.0  0.16531  0.11140  0.49999  1.0000
  C   C79       1.0  0.26137  0.10764  0.50000  1.0000
  C   C80       1.0  0.28220  0.02152  0.50002  1.0000
  C   C81       1.0  0.19934  0.97380  0.50002  1.0000
  C   C82       1.0  0.73347  0.57208  0.49995  1.0000
  C   C83       1.0  0.83153  0.72538  0.49988  1.0000
  C   C84       1.0  0.88333  0.80788  0.49993  1.0000
  C   C85       1.0  0.83470  0.88860  0.50001  1.0000
  C   C86       1.0  0.73863  0.89236  0.50004  1.0000
  C   C87       1.0  0.71780  0.97848  0.50002  1.0000
  C   C88       1.0  0.80066  0.02620  0.50000  1.0000
  C   C89       1.0  0.94983  0.50472  0.02901  1.0000
  S   S1        1.0  0.53101  0.32098  0.00014  1.0000
  S   S2        1.0  0.46954  0.67947  0.00004  1.0000
  S   S3        1.0  0.68019  0.53034  0.00027  1.0000
  S   S4        1.0  0.31997  0.46961  0.99998  1.0000
  S   S5        1.0  0.46926  0.32036  0.50016  1.0000
  S   S6        1.0  0.53080  0.67981  0.49999  1.0000
  S   S7        1.0  0.32049  0.53082  0.50009  1.0000
  S   S8        1.0  0.67960  0.46917  0.49994  1.0000
  N   N1        1.0  0.03226  0.12920  0.00256  1.0000
  N   N2        1.0  0.96840  0.87149  0.00103  1.0000
  N   N3        1.0  0.86956  0.03153  0.99894  1.0000
  N   N4        1.0  0.13140  0.96887  0.99925  1.0000
  N   N5        1.0  0.96843  0.13012  0.50001  1.0000
  N   N6        1.0  0.03158  0.86989  0.50023  1.0000
  N   N7        1.0  0.12994  0.03166  0.49996  1.0000
  N   N8        1.0  0.87006  0.96834  0.49997  1.0000
  O   O1        1.0  0.53514  0.37518  0.12367  1.0000
  O   O2        1.0  0.46518  0.62520  0.12346  1.0000
  O   O3        1.0  0.62525  0.53497  0.12294  1.0000
  O   O4        1.0  0.37444  0.46539  0.12325  1.0000
  O   O5        1.0  0.46500  0.37490  0.37695  1.0000
  O   O6        1.0  0.53499  0.62534  0.37673  1.0000
  O   O7        1.0  0.37487  0.53501  0.37669  1.0000
  O   O8        1.0  0.62502  0.46528  0.37670  1.0000
  O   O9        1.0  0.46551  0.62489  0.87690  1.0000
  O   O10       1.0  0.53524  0.37573  0.87715  1.0000
  O   O11       1.0  0.37444  0.46535  0.87675  1.0000
  O   O12       1.0  0.62651  0.53574  0.87640  1.0000
  O   O13       1.0  0.53506  0.62538  0.62330  1.0000
  O   O14       1.0  0.46516  0.37472  0.62356  1.0000
  O   O15       1.0  0.62509  0.46522  0.62326  1.0000
  O   O16       1.0  0.37515  0.53481  0.62321  1.0000
  O   O17       1.0  0.59577  0.25216  0.99984  1.0000
  O   O18       1.0  0.40475  0.74826  0.99959  1.0000
  O   O19       1.0  0.75016  0.59403  0.00204  1.0000
  O   O20       1.0  0.25107  0.40492  0.00007  1.0000
  O   O21       1.0  0.40454  0.25150  0.50011  1.0000
  O   O22       1.0  0.59547  0.74871  0.49991  1.0000
  O   O23       1.0  0.25184  0.59572  0.50041  1.0000
  O   O24       1.0  0.74801  0.40402  0.49986  1.0000
  O   O25       1.0  0.95563  0.51056  0.14728  1.0000
  O   O26       1.0  0.94551  0.49856  0.91053  1.0000
