data_image0
_chemical_formula_structural       Tb2H48C89S8N8O26
_chemical_formula_sum              "Tb2 H48 C89 S8 N8 O26"
_cell_length_a       15.3339
_cell_length_b       15.3334
_cell_length_c       9.88362
_cell_angle_alpha    89.9982
_cell_angle_beta     90.0015
_cell_angle_gamma    90.0001

_space_group_name_H-M_alt    "P 1"
_space_group_IT_number       1

loop_
  _space_group_symop_operation_xyz
  'x, y, z'

loop_
  _atom_site_type_symbol
  _atom_site_label
  _atom_site_symmetry_multiplicity
  _atom_site_fract_x
  _atom_site_fract_y
  _atom_site_fract_z
  _atom_site_occupancy
  Tb  Tb1       1.0  0.50004  0.50005  0.24998  1.0000
  Tb  Tb2       1.0  0.50005  0.49995  0.74999  1.0000
  H   H1        1.0  0.41605  0.26467  0.21859  1.0000
  H   H2        1.0  0.28206  0.17447  0.21820  1.0000
  H   H3        1.0  0.58394  0.73533  0.21858  1.0000
  H   H4        1.0  0.71794  0.82553  0.21820  1.0000
  H   H5        1.0  0.73536  0.41605  0.21856  1.0000
  H   H6        1.0  0.82556  0.28210  0.21814  1.0000
  H   H7        1.0  0.26464  0.58394  0.21855  1.0000
  H   H8        1.0  0.17445  0.71790  0.21818  1.0000
  H   H9        1.0  0.58394  0.26468  0.28142  1.0000
  H   H10       1.0  0.71794  0.17448  0.28181  1.0000
  H   H11       1.0  0.41605  0.73533  0.28142  1.0000
  H   H12       1.0  0.28205  0.82553  0.28180  1.0000
  H   H13       1.0  0.26468  0.41607  0.28142  1.0000
  H   H14       1.0  0.17448  0.28204  0.28179  1.0000
  H   H15       1.0  0.73532  0.58393  0.28141  1.0000
  H   H16       1.0  0.82553  0.71795  0.28179  1.0000
  H   H17       1.0  0.58394  0.73533  0.78143  1.0000
  H   H18       1.0  0.71794  0.82553  0.78180  1.0000
  H   H19       1.0  0.41606  0.26468  0.78144  1.0000
  H   H20       1.0  0.28206  0.17447  0.78181  1.0000
  H   H21       1.0  0.26467  0.58395  0.78142  1.0000
  H   H22       1.0  0.17446  0.71794  0.78179  1.0000
  H   H23       1.0  0.73532  0.41607  0.78143  1.0000
  H   H24       1.0  0.82553  0.28207  0.78180  1.0000
  H   H25       1.0  0.41606  0.73532  0.71856  1.0000
  H   H26       1.0  0.28207  0.82552  0.71819  1.0000
  H   H27       1.0  0.58395  0.26467  0.71857  1.0000
  H   H28       1.0  0.71794  0.17448  0.71820  1.0000
  H   H29       1.0  0.73532  0.58394  0.71857  1.0000
  H   H30       1.0  0.82553  0.71794  0.71820  1.0000
  H   H31       1.0  0.26468  0.41606  0.71855  1.0000
  H   H32       1.0  0.17447  0.28207  0.71819  1.0000
  H   H33       1.0  0.16220  0.30591  0.99998  1.0000
  H   H34       1.0  0.99154  0.34647  0.99998  1.0000
  H   H35       1.0  0.83780  0.69407  0.99999  1.0000
  H   H36       1.0  0.00844  0.65346  0.99999  1.0000
  H   H37       1.0  0.69410  0.16220  0.00000  1.0000
  H   H38       1.0  0.65346  0.99158  0.00000  1.0000
  H   H39       1.0  0.30591  0.83781  1.00000  1.0000
  H   H40       1.0  0.34654  0.00842  0.00000  1.0000
  H   H41       1.0  0.83779  0.30594  0.49997  1.0000
  H   H42       1.0  0.00842  0.34652  0.50009  1.0000
  H   H43       1.0  0.16220  0.69405  0.49997  1.0000
  H   H44       1.0  0.99160  0.65344  0.49999  1.0000
  H   H45       1.0  0.30592  0.16221  0.50000  1.0000
  H   H46       1.0  0.34656  0.99158  0.50000  1.0000
  H   H47       1.0  0.69408  0.83779  0.50000  1.0000
  H   H48       1.0  0.65344  0.00843  0.50000  1.0000
  C   C1        1.0  0.38750  0.24393  0.12306  1.0000
  C   C2        1.0  0.31143  0.19420  0.12259  1.0000
  C   C3        1.0  0.61250  0.75608  0.12306  1.0000
  C   C4        1.0  0.68857  0.80580  0.12259  1.0000
  C   C5        1.0  0.75602  0.38744  0.12302  1.0000
  C   C6        1.0  0.80566  0.31133  0.12254  1.0000
  C   C7        1.0  0.24398  0.61252  0.12304  1.0000
  C   C8        1.0  0.19423  0.68858  0.12257  1.0000
  C   C9        1.0  0.61249  0.24393  0.37695  1.0000
  C   C10       1.0  0.68857  0.19420  0.37742  1.0000
  C   C11       1.0  0.38750  0.75608  0.37694  1.0000
  C   C12       1.0  0.31143  0.80581  0.37741  1.0000
  C   C13       1.0  0.24394  0.38751  0.37693  1.0000
  C   C14       1.0  0.19417  0.31146  0.37741  1.0000
  C   C15       1.0  0.75609  0.61248  0.37692  1.0000
  C   C16       1.0  0.80583  0.68855  0.37741  1.0000
  C   C17       1.0  0.61250  0.75608  0.87694  1.0000
  C   C18       1.0  0.68857  0.80580  0.87742  1.0000
  C   C19       1.0  0.38750  0.24392  0.87695  1.0000
  C   C20       1.0  0.31143  0.19420  0.87742  1.0000
  C   C21       1.0  0.24390  0.61250  0.87692  1.0000
  C   C22       1.0  0.19419  0.68856  0.87739  1.0000
  C   C23       1.0  0.75610  0.38751  0.87692  1.0000
  C   C24       1.0  0.80581  0.31146  0.87740  1.0000
  C   C25       1.0  0.38750  0.75608  0.62305  1.0000
  C   C26       1.0  0.31143  0.80580  0.62258  1.0000
  C   C27       1.0  0.61250  0.24392  0.62305  1.0000
  C   C28       1.0  0.68857  0.19420  0.62258  1.0000
  C   C29       1.0  0.75608  0.61249  0.62306  1.0000
  C   C30       1.0  0.80581  0.68857  0.62258  1.0000
  C   C31       1.0  0.24392  0.38751  0.62302  1.0000
  C   C32       1.0  0.19418  0.31143  0.62258  1.0000
  C   C33       1.0  0.42528  0.26790  0.99999  1.0000
  C   C34       1.0  0.27304  0.16896  0.00000  1.0000
  C   C35       1.0  0.19116  0.11681  0.00000  1.0000
  C   C36       1.0  0.11088  0.16547  0.00003  1.0000
  C   C37       1.0  0.10700  0.26150  1.00000  1.0000
  C   C38       1.0  0.02086  0.28216  0.99985  1.0000
  C   C39       1.0  0.97340  0.19920  0.99999  1.0000
  C   C40       1.0  0.57472  0.73210  0.99999  1.0000
  C   C41       1.0  0.72695  0.83104  0.00000  1.0000
  C   C42       1.0  0.80882  0.88320  0.00000  1.0000
  C   C43       1.0  0.88916  0.83454  0.00000  1.0000
  C   C44       1.0  0.89299  0.73849  0.00001  1.0000
  C   C45       1.0  0.97915  0.71784  0.00002  1.0000
  C   C46       1.0  0.02660  0.80081  0.00001  1.0000
  C   C47       1.0  0.73211  0.42526  0.00003  1.0000
  C   C48       1.0  0.83101  0.27306  0.00006  1.0000
  C   C49       1.0  0.88318  0.19120  0.00001  1.0000
  C   C50       1.0  0.83454  0.11088  0.00001  1.0000
  C   C51       1.0  0.73850  0.10699  0.00000  1.0000
  C   C52       1.0  0.71785  0.02085  0.00000  1.0000
  C   C53       1.0  0.80079  0.97338  0.00000  1.0000
  C   C54       1.0  0.26790  0.57474  0.00001  1.0000
  C   C55       1.0  0.16897  0.72693  0.00003  1.0000
  C   C56       1.0  0.11682  0.80881  0.00000  1.0000
  C   C57       1.0  0.16546  0.88913  1.00000  1.0000
  C   C58       1.0  0.26149  0.89300  1.00000  1.0000
  C   C59       1.0  0.28215  0.97916  1.00000  1.0000
  C   C60       1.0  0.19920  0.02659  1.00000  1.0000
  C   C61       1.0  0.57473  0.26790  0.50001  1.0000
  C   C62       1.0  0.72693  0.16898  0.50000  1.0000
  C   C63       1.0  0.80877  0.11694  0.50000  1.0000
  C   C64       1.0  0.88902  0.16534  0.50001  1.0000
  C   C65       1.0  0.89302  0.26162  0.50003  1.0000
  C   C66       1.0  0.97909  0.28220  0.50002  1.0000
  C   C67       1.0  0.02665  0.19915  0.50000  1.0000
  C   C68       1.0  0.42528  0.73210  0.50001  1.0000
  C   C69       1.0  0.27306  0.83103  0.50000  1.0000
  C   C70       1.0  0.19123  0.88307  0.49999  1.0000
  C   C71       1.0  0.11098  0.83466  0.50000  1.0000
  C   C72       1.0  0.10698  0.73838  0.50001  1.0000
  C   C73       1.0  0.02090  0.71777  0.50001  1.0000
  C   C74       1.0  0.97336  0.80085  0.50000  1.0000
  C   C75       1.0  0.26791  0.42530  0.50000  1.0000
  C   C76       1.0  0.16895  0.27307  0.50001  1.0000
  C   C77       1.0  0.11693  0.19122  0.50000  1.0000
  C   C78       1.0  0.16533  0.11102  0.50000  1.0000
  C   C79       1.0  0.26159  0.10699  0.50000  1.0000
  C   C80       1.0  0.28223  0.02090  0.50000  1.0000
  C   C81       1.0  0.19915  0.97334  0.50000  1.0000
  C   C82       1.0  0.73210  0.57471  0.50002  1.0000
  C   C83       1.0  0.83104  0.72694  0.50001  1.0000
  C   C84       1.0  0.88308  0.80878  0.50000  1.0000
  C   C85       1.0  0.83467  0.88900  0.50000  1.0000
  C   C86       1.0  0.73841  0.89302  0.50000  1.0000
  C   C87       1.0  0.71777  0.97911  0.50000  1.0000
  C   C88       1.0  0.80086  0.02665  0.50000  1.0000
  C   C89       1.0  0.01392  0.47744  0.25353  1.0000
  S   S1        1.0  0.52893  0.32022  0.00026  1.0000
  S   S2        1.0  0.47107  0.67978  0.00009  1.0000
  S   S3        1.0  0.67980  0.52887  0.00012  1.0000
  S   S4        1.0  0.32024  0.47112  0.00021  1.0000
  S   S5        1.0  0.47108  0.32018  0.49988  1.0000
  S   S6        1.0  0.52892  0.67980  0.49977  1.0000
  S   S7        1.0  0.32022  0.52897  0.49986  1.0000
  S   S8        1.0  0.67974  0.47103  0.49982  1.0000
  N   N1        1.0  0.03123  0.13017  0.00001  1.0000
  N   N2        1.0  0.96876  0.86980  0.99999  1.0000
  N   N3        1.0  0.86985  0.03123  0.00001  1.0000
  N   N4        1.0  0.13016  0.96877  1.00000  1.0000
  N   N5        1.0  0.96882  0.12998  0.50000  1.0000
  N   N6        1.0  0.03118  0.87003  0.49999  1.0000
  N   N7        1.0  0.12996  0.03117  0.50000  1.0000
  N   N8        1.0  0.87004  0.96883  0.50000  1.0000
  O   O1        1.0  0.53358  0.37418  0.12294  1.0000
  O   O2        1.0  0.46643  0.62571  0.12300  1.0000
  O   O3        1.0  0.62573  0.53360  0.12299  1.0000
  O   O4        1.0  0.37419  0.46642  0.12285  1.0000
  O   O5        1.0  0.46643  0.37427  0.37701  1.0000
  O   O6        1.0  0.53360  0.62580  0.37704  1.0000
  O   O7        1.0  0.37423  0.53356  0.37705  1.0000
  O   O8        1.0  0.62577  0.46642  0.37711  1.0000
  O   O9        1.0  0.46646  0.62556  0.87686  1.0000
  O   O10       1.0  0.53352  0.37444  0.87681  1.0000
  O   O11       1.0  0.37435  0.46647  0.87691  1.0000
  O   O12       1.0  0.62559  0.53355  0.87685  1.0000
  O   O13       1.0  0.53356  0.62554  0.62321  1.0000
  O   O14       1.0  0.46648  0.37444  0.62314  1.0000
  O   O15       1.0  0.62559  0.46647  0.62315  1.0000
  O   O16       1.0  0.37440  0.53350  0.62313  1.0000
  O   O17       1.0  0.59260  0.25053  0.99992  1.0000
  O   O18       1.0  0.40741  0.74944  0.99996  1.0000
  O   O19       1.0  0.74946  0.59263  0.99998  1.0000
  O   O20       1.0  0.25054  0.40740  0.99996  1.0000
  O   O21       1.0  0.40740  0.25057  0.50005  1.0000
  O   O22       1.0  0.59262  0.74947  0.50007  1.0000
  O   O23       1.0  0.25058  0.59261  0.50008  1.0000
  O   O24       1.0  0.74946  0.40740  0.50008  1.0000
  O   O25       1.0  0.95779  0.42774  0.22797  1.0000
  O   O26       1.0  0.06998  0.52721  0.27922  1.0000
