data_image0
_chemical_formula_structural       Tb2H48C89S8N8O26
_chemical_formula_sum              "Tb2 H48 C89 S8 N8 O26"
_cell_length_a       15.3339
_cell_length_b       15.3334
_cell_length_c       9.88362
_cell_angle_alpha    89.9982
_cell_angle_beta     90.0015
_cell_angle_gamma    90.0001

_space_group_name_H-M_alt    "P 1"
_space_group_IT_number       1

loop_
  _space_group_symop_operation_xyz
  'x, y, z'

loop_
  _atom_site_type_symbol
  _atom_site_label
  _atom_site_symmetry_multiplicity
  _atom_site_fract_x
  _atom_site_fract_y
  _atom_site_fract_z
  _atom_site_occupancy
  Tb  Tb1       1.0  0.50003  0.50005  0.24996  1.0000
  Tb  Tb2       1.0  0.50002  0.49994  0.74997  1.0000
  H   H1        1.0  0.41608  0.26465  0.21859  1.0000
  H   H2        1.0  0.28209  0.17448  0.21823  1.0000
  H   H3        1.0  0.58392  0.73535  0.21859  1.0000
  H   H4        1.0  0.71791  0.82552  0.21822  1.0000
  H   H5        1.0  0.73540  0.41606  0.21855  1.0000
  H   H6        1.0  0.82555  0.28216  0.21814  1.0000
  H   H7        1.0  0.26460  0.58392  0.21856  1.0000
  H   H8        1.0  0.17446  0.71784  0.21821  1.0000
  H   H9        1.0  0.58392  0.26466  0.28141  1.0000
  H   H10       1.0  0.71791  0.17450  0.28178  1.0000
  H   H11       1.0  0.41607  0.73535  0.28141  1.0000
  H   H12       1.0  0.28208  0.82551  0.28177  1.0000
  H   H13       1.0  0.26466  0.41611  0.28142  1.0000
  H   H14       1.0  0.17450  0.28206  0.28177  1.0000
  H   H15       1.0  0.73533  0.58390  0.28140  1.0000
  H   H16       1.0  0.82552  0.71792  0.28177  1.0000
  H   H17       1.0  0.58391  0.73534  0.78142  1.0000
  H   H18       1.0  0.71791  0.82552  0.78178  1.0000
  H   H19       1.0  0.41609  0.26466  0.78143  1.0000
  H   H20       1.0  0.28210  0.17448  0.78178  1.0000
  H   H21       1.0  0.26465  0.58392  0.78140  1.0000
  H   H22       1.0  0.17447  0.71791  0.78176  1.0000
  H   H23       1.0  0.73533  0.41609  0.78141  1.0000
  H   H24       1.0  0.82552  0.28211  0.78177  1.0000
  H   H25       1.0  0.41609  0.73534  0.71858  1.0000
  H   H26       1.0  0.28210  0.82551  0.71822  1.0000
  H   H27       1.0  0.58392  0.26466  0.71858  1.0000
  H   H28       1.0  0.71791  0.17449  0.71822  1.0000
  H   H29       1.0  0.73533  0.58391  0.71859  1.0000
  H   H30       1.0  0.82552  0.71790  0.71822  1.0000
  H   H31       1.0  0.26466  0.41609  0.71856  1.0000
  H   H32       1.0  0.17448  0.28210  0.71821  1.0000
  H   H33       1.0  0.16225  0.30591  0.99996  1.0000
  H   H34       1.0  0.99148  0.34647  0.99995  1.0000
  H   H35       1.0  0.83775  0.69407  0.99999  1.0000
  H   H36       1.0  0.00849  0.65344  0.99998  1.0000
  H   H37       1.0  0.69410  0.16224  0.00000  1.0000
  H   H38       1.0  0.65343  0.99155  0.00000  1.0000
  H   H39       1.0  0.30590  0.83776  0.00000  1.0000
  H   H40       1.0  0.34657  0.00845  0.00000  1.0000
  H   H41       1.0  0.83775  0.30596  0.49995  1.0000
  H   H42       1.0  0.00846  0.34653  0.50017  1.0000
  H   H43       1.0  0.16223  0.69403  0.49994  1.0000
  H   H44       1.0  0.99158  0.65340  0.49998  1.0000
  H   H45       1.0  0.30593  0.16226  0.50000  1.0000
  H   H46       1.0  0.34660  0.99154  0.50000  1.0000
  H   H47       1.0  0.69407  0.83774  0.50000  1.0000
  H   H48       1.0  0.65340  0.00846  0.50000  1.0000
  C   C1        1.0  0.38753  0.24390  0.12309  1.0000
  C   C2        1.0  0.31146  0.19420  0.12258  1.0000
  C   C3        1.0  0.61247  0.75610  0.12308  1.0000
  C   C4        1.0  0.68854  0.80581  0.12258  1.0000
  C   C5        1.0  0.75598  0.38743  0.12304  1.0000
  C   C6        1.0  0.80557  0.31131  0.12251  1.0000
  C   C7        1.0  0.24398  0.61251  0.12306  1.0000
  C   C8        1.0  0.19425  0.68857  0.12256  1.0000
  C   C9        1.0  0.61246  0.24390  0.37691  1.0000
  C   C10       1.0  0.68852  0.19420  0.37741  1.0000
  C   C11       1.0  0.38753  0.75610  0.37691  1.0000
  C   C12       1.0  0.31147  0.80581  0.37741  1.0000
  C   C13       1.0  0.24391  0.38755  0.37690  1.0000
  C   C14       1.0  0.19416  0.31151  0.37740  1.0000
  C   C15       1.0  0.75612  0.61243  0.37690  1.0000
  C   C16       1.0  0.80584  0.68850  0.37740  1.0000
  C   C17       1.0  0.61247  0.75610  0.87692  1.0000
  C   C18       1.0  0.68854  0.80581  0.87742  1.0000
  C   C19       1.0  0.38753  0.24390  0.87693  1.0000
  C   C20       1.0  0.31146  0.19420  0.87743  1.0000
  C   C21       1.0  0.24387  0.61247  0.87689  1.0000
  C   C22       1.0  0.19418  0.68852  0.87739  1.0000
  C   C23       1.0  0.75613  0.38754  0.87689  1.0000
  C   C24       1.0  0.80583  0.31150  0.87740  1.0000
  C   C25       1.0  0.38754  0.75610  0.62308  1.0000
  C   C26       1.0  0.31148  0.80580  0.62258  1.0000
  C   C27       1.0  0.61247  0.24390  0.62308  1.0000
  C   C28       1.0  0.68853  0.19420  0.62259  1.0000
  C   C29       1.0  0.75610  0.61245  0.62308  1.0000
  C   C30       1.0  0.80581  0.68852  0.62258  1.0000
  C   C31       1.0  0.24390  0.38755  0.62305  1.0000
  C   C32       1.0  0.19418  0.31148  0.62258  1.0000
  C   C33       1.0  0.42528  0.26788  0.00000  1.0000
  C   C34       1.0  0.27310  0.16901  0.00000  1.0000
  C   C35       1.0  0.19124  0.11690  0.00001  1.0000
  C   C36       1.0  0.11085  0.16549  0.00005  1.0000
  C   C37       1.0  0.10703  0.26155  0.99998  1.0000
  C   C38       1.0  0.02089  0.28217  0.99976  1.0000
  C   C39       1.0  0.97348  0.19920  0.99997  1.0000
  C   C40       1.0  0.57472  0.73212  0.99999  1.0000
  C   C41       1.0  0.72689  0.83099  0.00000  1.0000
  C   C42       1.0  0.80875  0.88310  0.00000  1.0000
  C   C43       1.0  0.88916  0.83450  0.00001  1.0000
  C   C44       1.0  0.89297  0.73843  0.00002  1.0000
  C   C45       1.0  0.97913  0.71782  0.00004  1.0000
  C   C46       1.0  0.02653  0.80079  0.00001  1.0000
  C   C47       1.0  0.73212  0.42525  0.00002  1.0000
  C   C48       1.0  0.83094  0.27311  0.00004  1.0000
  C   C49       1.0  0.88309  0.19129  0.00002  1.0000
  C   C50       1.0  0.83452  0.11084  0.00002  1.0000
  C   C51       1.0  0.73845  0.10701  0.00000  1.0000
  C   C52       1.0  0.71782  0.02086  0.00000  1.0000
  C   C53       1.0  0.80079  0.97348  0.00000  1.0000
  C   C54       1.0  0.26788  0.57475  0.00001  1.0000
  C   C55       1.0  0.16902  0.72688  0.00002  1.0000
  C   C56       1.0  0.11691  0.80874  0.00001  1.0000
  C   C57       1.0  0.16549  0.88915  1.00000  1.0000
  C   C58       1.0  0.26155  0.89298  1.00000  1.0000
  C   C59       1.0  0.28218  0.97914  0.00000  1.0000
  C   C60       1.0  0.19920  0.02652  1.00000  1.0000
  C   C61       1.0  0.57472  0.26788  0.50001  1.0000
  C   C62       1.0  0.72686  0.16904  0.50000  1.0000
  C   C63       1.0  0.80872  0.11693  0.50000  1.0000
  C   C64       1.0  0.88918  0.16548  0.50002  1.0000
  C   C65       1.0  0.89297  0.26157  0.50004  1.0000
  C   C66       1.0  0.97911  0.28214  0.50004  1.0000
  C   C67       1.0  0.02652  0.19916  0.50001  1.0000
  C   C68       1.0  0.42528  0.73212  0.50000  1.0000
  C   C69       1.0  0.27313  0.83097  0.49999  1.0000
  C   C70       1.0  0.19127  0.88308  0.50000  1.0000
  C   C71       1.0  0.11082  0.83452  0.50001  1.0000
  C   C72       1.0  0.10702  0.73843  0.50001  1.0000
  C   C73       1.0  0.02087  0.71783  0.50001  1.0000
  C   C74       1.0  0.97349  0.80084  0.50001  1.0000
  C   C75       1.0  0.26789  0.42531  0.49999  1.0000
  C   C76       1.0  0.16900  0.27314  0.50001  1.0000
  C   C77       1.0  0.11691  0.19127  0.50000  1.0000
  C   C78       1.0  0.16547  0.11083  0.50000  1.0000
  C   C79       1.0  0.26155  0.10703  0.50000  1.0000
  C   C80       1.0  0.28218  0.02087  0.50000  1.0000
  C   C81       1.0  0.19915  0.97349  0.50000  1.0000
  C   C82       1.0  0.73212  0.57469  0.50001  1.0000
  C   C83       1.0  0.83099  0.72686  0.50000  1.0000
  C   C84       1.0  0.88310  0.80873  0.50000  1.0000
  C   C85       1.0  0.83454  0.88918  0.50000  1.0000
  C   C86       1.0  0.73845  0.89297  0.50000  1.0000
  C   C87       1.0  0.71782  0.97913  0.50000  1.0000
  C   C88       1.0  0.80085  0.02651  0.50000  1.0000
  C   C89       1.0  0.01397  0.47751  0.25357  1.0000
  S   S1        1.0  0.52884  0.32004  0.99995  1.0000
  S   S2        1.0  0.47117  0.67992  0.99994  1.0000
  S   S3        1.0  0.67997  0.52877  0.99997  1.0000
  S   S4        1.0  0.32002  0.47123  0.99996  1.0000
  S   S5        1.0  0.47118  0.32006  0.50004  1.0000
  S   S6        1.0  0.52883  0.67995  0.50008  1.0000
  S   S7        1.0  0.32004  0.52888  0.50003  1.0000
  S   S8        1.0  0.67993  0.47114  0.50006  1.0000
  N   N1        1.0  0.03119  0.12998  0.00002  1.0000
  N   N2        1.0  0.96881  0.87000  0.99999  1.0000
  N   N3        1.0  0.87003  0.03120  0.00001  1.0000
  N   N4        1.0  0.12997  0.96881  1.00000  1.0000
  N   N5        1.0  0.96882  0.12990  0.49999  1.0000
  N   N6        1.0  0.03118  0.87012  0.49998  1.0000
  N   N7        1.0  0.12989  0.03118  0.50000  1.0000
  N   N8        1.0  0.87011  0.96882  0.50000  1.0000
  O   O1        1.0  0.53366  0.37437  0.12334  1.0000
  O   O2        1.0  0.46636  0.62557  0.12331  1.0000
  O   O3        1.0  0.62558  0.53368  0.12330  1.0000
  O   O4        1.0  0.37439  0.46634  0.12329  1.0000
  O   O5        1.0  0.46636  0.37442  0.37669  1.0000
  O   O6        1.0  0.53368  0.62563  0.37667  1.0000
  O   O7        1.0  0.37441  0.53363  0.37669  1.0000
  O   O8        1.0  0.62558  0.46634  0.37672  1.0000
  O   O9        1.0  0.46639  0.62548  0.87671  1.0000
  O   O10       1.0  0.53359  0.37449  0.87672  1.0000
  O   O11       1.0  0.37443  0.46638  0.87672  1.0000
  O   O12       1.0  0.62552  0.53363  0.87671  1.0000
  O   O13       1.0  0.53363  0.62550  0.62328  1.0000
  O   O14       1.0  0.46640  0.37450  0.62328  1.0000
  O   O15       1.0  0.62552  0.46639  0.62329  1.0000
  O   O16       1.0  0.37449  0.53356  0.62329  1.0000
  O   O17       1.0  0.59272  0.25040  0.99990  1.0000
  O   O18       1.0  0.40728  0.74957  0.99994  1.0000
  O   O19       1.0  0.74958  0.59274  0.99997  1.0000
  O   O20       1.0  0.25038  0.40728  0.99997  1.0000
  O   O21       1.0  0.40727  0.25043  0.50007  1.0000
  O   O22       1.0  0.59274  0.74958  0.50009  1.0000
  O   O23       1.0  0.25045  0.59275  0.50012  1.0000
  O   O24       1.0  0.74959  0.40728  0.50010  1.0000
  O   O25       1.0  0.95788  0.42784  0.22807  1.0000
  O   O26       1.0  0.06993  0.52723  0.27928  1.0000
