data_image0
_chemical_formula_structural       Tb2H48C89S8N8O26
_chemical_formula_sum              "Tb2 H48 C89 S8 N8 O26"
_cell_length_a       15.3339
_cell_length_b       15.3334
_cell_length_c       9.88362
_cell_angle_alpha    89.9982
_cell_angle_beta     90.0015
_cell_angle_gamma    90.0001

_space_group_name_H-M_alt    "P 1"
_space_group_IT_number       1

loop_
  _space_group_symop_operation_xyz
  'x, y, z'

loop_
  _atom_site_type_symbol
  _atom_site_label
  _atom_site_symmetry_multiplicity
  _atom_site_fract_x
  _atom_site_fract_y
  _atom_site_fract_z
  _atom_site_occupancy
  Tb  Tb1       1.0  0.49998  0.49997  0.25004  1.0000
  Tb  Tb2       1.0  0.49997  0.49993  0.75002  1.0000
  H   H1        1.0  0.41765  0.26395  0.21846  1.0000
  H   H2        1.0  0.28368  0.17459  0.21828  1.0000
  H   H3        1.0  0.58232  0.73607  0.21836  1.0000
  H   H4        1.0  0.71630  0.82537  0.21813  1.0000
  H   H5        1.0  0.73596  0.41761  0.21851  1.0000
  H   H6        1.0  0.82531  0.28364  0.21831  1.0000
  H   H7        1.0  0.26403  0.58241  0.21849  1.0000
  H   H8        1.0  0.17465  0.71638  0.21828  1.0000
  H   H9        1.0  0.58243  0.26393  0.28166  1.0000
  H   H10       1.0  0.71636  0.17459  0.28178  1.0000
  H   H11       1.0  0.41765  0.73617  0.28183  1.0000
  H   H12       1.0  0.28374  0.82541  0.28193  1.0000
  H   H13       1.0  0.26411  0.41763  0.28148  1.0000
  H   H14       1.0  0.17470  0.28367  0.28172  1.0000
  H   H15       1.0  0.73594  0.58239  0.28150  1.0000
  H   H16       1.0  0.82532  0.71635  0.28172  1.0000
  H   H17       1.0  0.58239  0.73583  0.78137  1.0000
  H   H18       1.0  0.71636  0.82533  0.78152  1.0000
  H   H19       1.0  0.41756  0.26399  0.78148  1.0000
  H   H20       1.0  0.28368  0.17445  0.78170  1.0000
  H   H21       1.0  0.26404  0.58241  0.78149  1.0000
  H   H22       1.0  0.17466  0.71638  0.78167  1.0000
  H   H23       1.0  0.73595  0.41761  0.78151  1.0000
  H   H24       1.0  0.82532  0.28365  0.78172  1.0000
  H   H25       1.0  0.41758  0.73595  0.71868  1.0000
  H   H26       1.0  0.28389  0.82567  0.71867  1.0000
  H   H27       1.0  0.58241  0.26388  0.71857  1.0000
  H   H28       1.0  0.71638  0.17450  0.71845  1.0000
  H   H29       1.0  0.73593  0.58238  0.71852  1.0000
  H   H30       1.0  0.82532  0.71634  0.71830  1.0000
  H   H31       1.0  0.26411  0.41763  0.71853  1.0000
  H   H32       1.0  0.17472  0.28366  0.71828  1.0000
  H   H33       1.0  0.16256  0.30554  0.99994  1.0000
  H   H34       1.0  0.99137  0.34649  0.00004  1.0000
  H   H35       1.0  0.83735  0.69442  0.00002  1.0000
  H   H36       1.0  0.00855  0.65351  0.99996  1.0000
  H   H37       1.0  0.69428  0.16260  0.99997  1.0000
  H   H38       1.0  0.65327  0.99157  0.00024  1.0000
  H   H39       1.0  0.30552  0.83757  0.00009  1.0000
  H   H40       1.0  0.34635  0.00842  0.99964  1.0000
  H   H41       1.0  0.83729  0.30569  0.50004  1.0000
  H   H42       1.0  0.00864  0.34672  0.49998  1.0000
  H   H43       1.0  0.16268  0.69432  0.49998  1.0000
  H   H44       1.0  0.99142  0.65336  0.50000  1.0000
  H   H45       1.0  0.30516  0.16246  0.49917  1.0000
  H   H46       1.0  0.34535  0.99101  0.48954  1.0000
  H   H47       1.0  0.69448  0.83783  0.49967  1.0000
  H   H48       1.0  0.65402  0.00858  0.49742  1.0000
  C   C1        1.0  0.38905  0.24341  0.12291  1.0000
  C   C2        1.0  0.31275  0.19401  0.12239  1.0000
  C   C3        1.0  0.61087  0.75663  0.12277  1.0000
  C   C4        1.0  0.68719  0.80600  0.12223  1.0000
  C   C5        1.0  0.75644  0.38898  0.12295  1.0000
  C   C6        1.0  0.80586  0.31269  0.12242  1.0000
  C   C7        1.0  0.24357  0.61107  0.12293  1.0000
  C   C8        1.0  0.19412  0.68735  0.12237  1.0000
  C   C9        1.0  0.61100  0.24334  0.37720  1.0000
  C   C10       1.0  0.68729  0.19392  0.37772  1.0000
  C   C11       1.0  0.38913  0.75678  0.37740  1.0000
  C   C12       1.0  0.31283  0.80620  0.37792  1.0000
  C   C13       1.0  0.24360  0.38902  0.37705  1.0000
  C   C14       1.0  0.19410  0.31277  0.37761  1.0000
  C   C15       1.0  0.75641  0.61103  0.37707  1.0000
  C   C16       1.0  0.80587  0.68731  0.37762  1.0000
  C   C17       1.0  0.61086  0.75658  0.87690  1.0000
  C   C18       1.0  0.68716  0.80600  0.87738  1.0000
  C   C19       1.0  0.38900  0.24341  0.87702  1.0000
  C   C20       1.0  0.31272  0.19398  0.87757  1.0000
  C   C21       1.0  0.24359  0.61104  0.87705  1.0000
  C   C22       1.0  0.19414  0.68732  0.87755  1.0000
  C   C23       1.0  0.75642  0.38900  0.87707  1.0000
  C   C24       1.0  0.80584  0.31271  0.87759  1.0000
  C   C25       1.0  0.38916  0.75680  0.62316  1.0000
  C   C26       1.0  0.31293  0.80640  0.62267  1.0000
  C   C27       1.0  0.61097  0.24326  0.62305  1.0000
  C   C28       1.0  0.68726  0.19383  0.62253  1.0000
  C   C29       1.0  0.75639  0.61100  0.62294  1.0000
  C   C30       1.0  0.80583  0.68728  0.62243  1.0000
  C   C31       1.0  0.24364  0.38905  0.62296  1.0000
  C   C32       1.0  0.19420  0.31280  0.62246  1.0000
  C   C33       1.0  0.42684  0.26757  0.99996  1.0000
  C   C34       1.0  0.27393  0.16890  1.00000  1.0000
  C   C35       1.0  0.19166  0.11688  0.00018  1.0000
  C   C36       1.0  0.11097  0.16540  0.99990  1.0000
  C   C37       1.0  0.10710  0.26147  0.99985  1.0000
  C   C38       1.0  0.02095  0.28216  0.99998  1.0000
  C   C39       1.0  0.97345  0.19925  1.00000  1.0000
  C   C40       1.0  0.57301  0.73250  0.99988  1.0000
  C   C41       1.0  0.72595  0.83111  0.99980  1.0000
  C   C42       1.0  0.80819  0.88314  0.99989  1.0000
  C   C43       1.0  0.88889  0.83462  0.00005  1.0000
  C   C44       1.0  0.89277  0.73853  0.00004  1.0000
  C   C45       1.0  0.97892  0.71782  0.99995  1.0000
  C   C46       1.0  0.02640  0.80071  0.99994  1.0000
  C   C47       1.0  0.73229  0.42681  0.00003  1.0000
  C   C48       1.0  0.83098  0.27392  0.99998  1.0000
  C   C49       1.0  0.88305  0.19170  0.99997  1.0000
  C   C50       1.0  0.83450  0.11101  0.99981  1.0000
  C   C51       1.0  0.73841  0.10719  0.99979  1.0000
  C   C52       1.0  0.71766  0.02104  0.99982  1.0000
  C   C53       1.0  0.80058  0.97352  0.99981  1.0000
  C   C54       1.0  0.26772  0.57323  0.00002  1.0000
  C   C55       1.0  0.16896  0.72610  0.99993  1.0000
  C   C56       1.0  0.11680  0.80828  1.00000  1.0000
  C   C57       1.0  0.16524  0.88900  0.00039  1.0000
  C   C58       1.0  0.26130  0.89290  0.00067  1.0000
  C   C59       1.0  0.28200  0.97902  0.00078  1.0000
  C   C60       1.0  0.19911  0.02649  0.00053  1.0000
  C   C61       1.0  0.57317  0.26745  0.50010  1.0000
  C   C62       1.0  0.72608  0.16876  0.50011  1.0000
  C   C63       1.0  0.80844  0.11690  0.49999  1.0000
  C   C64       1.0  0.88899  0.16558  0.50003  1.0000
  C   C65       1.0  0.89277  0.26166  0.49995  1.0000
  C   C66       1.0  0.97891  0.28245  0.49989  1.0000
  C   C67       1.0  0.02643  0.19960  0.49998  1.0000
  C   C68       1.0  0.42702  0.73263  0.50023  1.0000
  C   C69       1.0  0.27405  0.83150  0.50023  1.0000
  C   C70       1.0  0.19152  0.88322  0.49996  1.0000
  C   C71       1.0  0.11103  0.83447  0.50015  1.0000
  C   C72       1.0  0.10725  0.73841  0.49993  1.0000
  C   C73       1.0  0.02110  0.71765  0.49999  1.0000
  C   C74       1.0  0.97360  0.80051  0.50002  1.0000
  C   C75       1.0  0.26775  0.42684  0.49997  1.0000
  C   C76       1.0  0.16895  0.27409  0.50010  1.0000
  C   C77       1.0  0.11675  0.19199  0.50064  1.0000
  C   C78       1.0  0.16499  0.11114  0.50170  1.0000
  C   C79       1.0  0.26101  0.10710  0.49961  1.0000
  C   C80       1.0  0.28143  0.02093  0.49644  1.0000
  C   C81       1.0  0.19860  0.97361  0.49907  1.0000
  C   C82       1.0  0.73224  0.57320  0.49998  1.0000
  C   C83       1.0  0.83102  0.72606  0.50006  1.0000
  C   C84       1.0  0.88325  0.80818  0.50015  1.0000
  C   C85       1.0  0.83496  0.88901  0.50040  1.0000
  C   C86       1.0  0.73889  0.89301  0.49987  1.0000
  C   C87       1.0  0.71834  0.97917  0.49896  1.0000
  C   C88       1.0  0.80120  0.02653  0.49967  1.0000
  C   C89       1.0  0.47752  0.97642  0.67194  1.0000
  S   S1        1.0  0.53035  0.32013  0.99992  1.0000
  S   S2        1.0  0.46955  0.67984  0.99986  1.0000
  S   S3        1.0  0.67979  0.53037  0.99999  1.0000
  S   S4        1.0  0.32018  0.46966  0.99999  1.0000
  S   S5        1.0  0.46960  0.31991  0.50020  1.0000
  S   S6        1.0  0.53049  0.67985  0.50030  1.0000
  S   S7        1.0  0.32025  0.53036  0.50002  1.0000
  S   S8        1.0  0.67974  0.46964  0.50003  1.0000
  N   N1        1.0  0.03134  0.12994  0.99995  1.0000
  N   N2        1.0  0.96855  0.87004  0.00008  1.0000
  N   N3        1.0  0.86993  0.03137  0.99980  1.0000
  N   N4        1.0  0.12974  0.96864  0.00024  1.0000
  N   N5        1.0  0.96863  0.13021  0.49990  1.0000
  N   N6        1.0  0.03139  0.86988  0.49991  1.0000
  N   N7        1.0  0.12936  0.03158  0.50166  1.0000
  N   N8        1.0  0.87054  0.96861  0.50043  1.0000
  O   O1        1.0  0.53528  0.37465  0.12315  1.0000
  O   O2        1.0  0.46474  0.62531  0.12309  1.0000
  O   O3        1.0  0.62526  0.53530  0.12319  1.0000
  O   O4        1.0  0.37472  0.46470  0.12318  1.0000
  O   O5        1.0  0.46444  0.37430  0.37689  1.0000
  O   O6        1.0  0.53539  0.62552  0.37692  1.0000
  O   O7        1.0  0.37482  0.53530  0.37687  1.0000
  O   O8        1.0  0.62515  0.46468  0.37689  1.0000
  O   O9        1.0  0.46478  0.62524  0.87669  1.0000
  O   O10       1.0  0.53523  0.37474  0.87676  1.0000
  O   O11       1.0  0.37473  0.46473  0.87681  1.0000
  O   O12       1.0  0.62524  0.53530  0.87681  1.0000
  O   O13       1.0  0.53508  0.62507  0.62327  1.0000
  O   O14       1.0  0.46468  0.37462  0.62322  1.0000
  O   O15       1.0  0.62519  0.46469  0.62321  1.0000
  O   O16       1.0  0.37478  0.53526  0.62321  1.0000
  O   O17       1.0  0.59417  0.25046  0.99974  1.0000
  O   O18       1.0  0.40571  0.74947  0.99964  1.0000
  O   O19       1.0  0.74956  0.59409  0.99995  1.0000
  O   O20       1.0  0.25039  0.40597  0.99995  1.0000
  O   O21       1.0  0.40606  0.24994  0.50077  1.0000
  O   O22       1.0  0.59434  0.74947  0.50108  1.0000
  O   O23       1.0  0.25055  0.59415  0.50005  1.0000
  O   O24       1.0  0.74950  0.40592  0.50004  1.0000
  O   O25       1.0  0.50217  0.96817  0.55989  1.0000
  O   O26       1.0  0.45283  0.98484  0.78375  1.0000
